src/Test_Network/C7_LoadXfmrs.dss
new transformer.C7_t21396254a        phases=1 windings=3  wdg=1 bus=C7_l2804253.1 kv=7.2 kva=15   wdg=2 bus=C7_x2804253a.1.0 kv=0.12 kva=15   wdg=3 bus=C7_x2804253a.0.2 kv=0.12 kva=15   %imag=0.5 %rs=[0.6 1.2 1.2] %noloadloss=.2 xhl=2.04  xht=2.04  xlt=1.36 
new transformer.C7_t5321859b         phases=1 windings=3  wdg=1 bus=C7_l3254213.2 kv=7.2 kva=25   wdg=2 bus=C7_x3254213b.1.0 kv=0.12 kva=25   wdg=3 bus=C7_x3254213b.0.2 kv=0.12 kva=25   %imag=0.5 %rs=[0.6 1.2 1.2] %noloadloss=.2 xhl=2.04  xht=2.04  xlt=1.36 
new transformer.C7_t5391741b         phases=1 windings=3  wdg=1 bus=C7_l3216339.2 kv=7.2 kva=25   wdg=2 bus=C7_x3216339b.1.0 kv=0.12 kva=25   wdg=3 bus=C7_x3216339b.0.2 kv=0.12 kva=25   %imag=0.5 %rs=[0.6 1.2 1.2] %noloadloss=.2 xhl=2.04  xht=2.04  xlt=1.36 
new transformer.C7_t5293672a         phases=1 windings=3  wdg=1 bus=C7_l2954355.1 kv=7.2 kva=15   wdg=2 bus=C7_x2954355a.1.0 kv=0.12 kva=15   wdg=3 bus=C7_x2954355a.0.2 kv=0.12 kva=15   %imag=0.5 %rs=[0.6 1.2 1.2] %noloadloss=.2 xhl=2.04  xht=2.04  xlt=1.36 
new transformer.C7_t21474711c        phases=1 windings=3  wdg=1 bus=C7_l2861197.3 kv=7.2 kva=15   wdg=2 bus=C7_x2861197c.1.0 kv=0.12 kva=15   wdg=3 bus=C7_x2861197c.0.2 kv=0.12 kva=15   %imag=0.5 %rs=[0.6 1.2 1.2] %noloadloss=.2 xhl=2.04  xht=2.04  xlt=1.36 
new transformer.C7_t5260488a         phases=1 windings=3  wdg=1 bus=C7_l2842379.1 kv=7.2 kva=37.5 wdg=2 bus=C7_x2842379a.1.0 kv=0.12 kva=37.5 wdg=3 bus=C7_x2842379a.0.2 kv=0.12 kva=37.5 %imag=0.5 %rs=[0.6 1.2 1.2] %noloadloss=.2 xhl=2.04  xht=2.04  xlt=1.36 
new transformer.C7_t5391758b         phases=1 windings=3  wdg=1 bus=C7_l2841636.2 kv=7.2 kva=15   wdg=2 bus=C7_x2841636b.1.0 kv=0.12 kva=15   wdg=3 bus=C7_x2841636b.0.2 kv=0.12 kva=15   %imag=0.5 %rs=[0.6 1.2 1.2] %noloadloss=.2 xhl=2.04  xht=2.04  xlt=1.36 
new transformer.C7_t228091193a       phases=1 windings=3  wdg=1 bus=C7_l3047289.1 kv=7.2 kva=50   wdg=2 bus=C7_x3047289a.1.0 kv=0.12 kva=50   wdg=3 bus=C7_x3047289a.0.2 kv=0.12 kva=50   %imag=0.5 %rs=[0.6 1.2 1.2] %noloadloss=.2 xhl=2.04  xht=2.04  xlt=1.36 
new transformer.C7_t228091193b       phases=1 windings=3  wdg=1 bus=C7_l3047289.2 kv=7.2 kva=50   wdg=2 bus=C7_x3047289b.1.0 kv=0.12 kva=50   wdg=3 bus=C7_x3047289b.0.2 kv=0.12 kva=50   %imag=0.5 %rs=[0.6 1.2 1.2] %noloadloss=.2 xhl=2.04  xht=2.04  xlt=1.36 
new transformer.C7_t228091193c       phases=1 windings=3  wdg=1 bus=C7_l3047289.3 kv=7.2 kva=50   wdg=2 bus=C7_x3047289c.1.0 kv=0.12 kva=50   wdg=3 bus=C7_x3047289c.0.2 kv=0.12 kva=50   %imag=0.5 %rs=[0.6 1.2 1.2] %noloadloss=.2 xhl=2.04  xht=2.04  xlt=1.36 
new transformer.C7_t5302862c         phases=1 windings=3  wdg=1 bus=C7_l3085399.3 kv=7.2 kva=15   wdg=2 bus=C7_x3085399c.1.0 kv=0.12 kva=15   wdg=3 bus=C7_x3085399c.0.2 kv=0.12 kva=15   %imag=0.5 %rs=[0.6 1.2 1.2] %noloadloss=.2 xhl=2.04  xht=2.04  xlt=1.36 
new transformer.C7_t21236413b        phases=1 windings=3  wdg=1 bus=C7_l3085391.2 kv=7.2 kva=50   wdg=2 bus=C7_x3085391b.1.0 kv=0.12 kva=50   wdg=3 bus=C7_x3085391b.0.2 kv=0.12 kva=50   %imag=0.5 %rs=[0.6 1.2 1.2] %noloadloss=.2 xhl=2.04  xht=2.04  xlt=1.36 
new transformer.C7_t5302468a         phases=1 windings=3  wdg=1 bus=C7_l2897778.1 kv=7.2 kva=10   wdg=2 bus=C7_x2897778a.1.0 kv=0.12 kva=10   wdg=3 bus=C7_x2897778a.0.2 kv=0.12 kva=10   %imag=0.5 %rs=[0.6 1.2 1.2] %noloadloss=.2 xhl=2.04  xht=2.04  xlt=1.36 
new transformer.C7_t5294787a         phases=1 windings=3  wdg=1 bus=C7_l3197647.1 kv=7.2 kva=10   wdg=2 bus=C7_x3197647a.1.0 kv=0.12 kva=10   wdg=3 bus=C7_x3197647a.0.2 kv=0.12 kva=10   %imag=0.5 %rs=[0.6 1.2 1.2] %noloadloss=.2 xhl=2.04  xht=2.04  xlt=1.36 
new transformer.C7_t5157715b         phases=1 windings=3  wdg=1 bus=C7_l2936275.2 kv=7.2 kva=10   wdg=2 bus=C7_x2936275b.1.0 kv=0.12 kva=10   wdg=3 bus=C7_x2936275b.0.2 kv=0.12 kva=10   %imag=0.5 %rs=[0.6 1.2 1.2] %noloadloss=.2 xhl=2.04  xht=2.04  xlt=1.36 
new transformer.C7_t5355768b         phases=1 windings=3  wdg=1 bus=C7_l2729408.2 kv=7.2 kva=25   wdg=2 bus=C7_x2729408b.1.0 kv=0.12 kva=25   wdg=3 bus=C7_x2729408b.0.2 kv=0.12 kva=25   %imag=0.5 %rs=[0.6 1.2 1.2] %noloadloss=.2 xhl=2.04  xht=2.04  xlt=1.36 
new transformer.C7_t5138562a         phases=1 windings=3  wdg=1 bus=C7_l2673310.1 kv=7.2 kva=25   wdg=2 bus=C7_x2673310a.1.0 kv=0.12 kva=25   wdg=3 bus=C7_x2673310a.0.2 kv=0.12 kva=25   %imag=0.5 %rs=[0.6 1.2 1.2] %noloadloss=.2 xhl=2.04  xht=2.04  xlt=1.36 
new transformer.C7_t5355934a         phases=1 windings=3  wdg=1 bus=C7_l3048212.1 kv=7.2 kva=10   wdg=2 bus=C7_x3048212a.1.0 kv=0.12 kva=10   wdg=3 bus=C7_x3048212a.0.2 kv=0.12 kva=10   %imag=0.5 %rs=[0.6 1.2 1.2] %noloadloss=.2 xhl=2.04  xht=2.04  xlt=1.36 
new transformer.C7_t5293483a         phases=1 windings=3  wdg=1 bus=C7_l3104133.1 kv=7.2 kva=25   wdg=2 bus=C7_x3104133a.1.0 kv=0.12 kva=25   wdg=3 bus=C7_x3104133a.0.2 kv=0.12 kva=25   %imag=0.5 %rs=[0.6 1.2 1.2] %noloadloss=.2 xhl=2.04  xht=2.04  xlt=1.36 
new transformer.C7_t21399762a        phases=1 windings=3  wdg=1 bus=C7_l2879087.1 kv=7.2 kva=15   wdg=2 bus=C7_x2879087a.1.0 kv=0.12 kva=15   wdg=3 bus=C7_x2879087a.0.2 kv=0.12 kva=15   %imag=0.5 %rs=[0.6 1.2 1.2] %noloadloss=.2 xhl=2.04  xht=2.04  xlt=1.36 
new transformer.C7_t5138650c         phases=1 windings=3  wdg=1 bus=C7_l2710510.3 kv=7.2 kva=10   wdg=2 bus=C7_x2710510c.1.0 kv=0.12 kva=10   wdg=3 bus=C7_x2710510c.0.2 kv=0.12 kva=10   %imag=0.5 %rs=[0.6 1.2 1.2] %noloadloss=.2 xhl=2.04  xht=2.04  xlt=1.36 
new transformer.C7_t5323242b         phases=1 windings=3  wdg=1 bus=C7_l3122810.2 kv=7.2 kva=25   wdg=2 bus=C7_x3122810b.1.0 kv=0.12 kva=25   wdg=3 bus=C7_x3122810b.0.2 kv=0.12 kva=25   %imag=0.5 %rs=[0.6 1.2 1.2] %noloadloss=.2 xhl=2.04  xht=2.04  xlt=1.36 
new transformer.C7_t28127090c        phases=1 windings=3  wdg=1 bus=C7_l2954352.3 kv=7.2 kva=25   wdg=2 bus=C7_x2954352c.1.0 kv=0.12 kva=25   wdg=3 bus=C7_x2954352c.0.2 kv=0.12 kva=25   %imag=0.5 %rs=[0.6 1.2 1.2] %noloadloss=.2 xhl=2.04  xht=2.04  xlt=1.36 
new transformer.C7_t5138769a         phases=1 windings=3  wdg=1 bus=C7_l2729411.1 kv=7.2 kva=10   wdg=2 bus=C7_x2729411a.1.0 kv=0.12 kva=10   wdg=3 bus=C7_x2729411a.0.2 kv=0.12 kva=10   %imag=0.5 %rs=[0.6 1.2 1.2] %noloadloss=.2 xhl=2.04  xht=2.04  xlt=1.36 
new transformer.C7_t5338896a         phases=1 windings=3  wdg=1 bus=C7_l3178971.1 kv=7.2 kva=15   wdg=2 bus=C7_x3178971a.1.0 kv=0.12 kva=15   wdg=3 bus=C7_x3178971a.0.2 kv=0.12 kva=15   %imag=0.5 %rs=[0.6 1.2 1.2] %noloadloss=.2 xhl=2.04  xht=2.04  xlt=1.36 
new transformer.C7_t5355586b         phases=1 windings=3  wdg=1 bus=C7_l3254234.2 kv=7.2 kva=25   wdg=2 bus=C7_x3254234b.1.0 kv=0.12 kva=25   wdg=3 bus=C7_x3254234b.0.2 kv=0.12 kva=25   %imag=0.5 %rs=[0.6 1.2 1.2] %noloadloss=.2 xhl=2.04  xht=2.04  xlt=1.36 
new transformer.C7_t5293471a         phases=1 windings=3  wdg=1 bus=C7_293471.1   kv=7.2 kva=25   wdg=2 bus=C7_x_293471a.1.0 kv=0.12 kva=25   wdg=3 bus=C7_x_293471a.0.2 kv=0.12 kva=25   %imag=0.5 %rs=[0.6 1.2 1.2] %noloadloss=.2 xhl=2.04  xht=2.04  xlt=1.36 
new transformer.C7_t5293471b         phases=1 windings=3  wdg=1 bus=C7_293471.2   kv=7.2 kva=25   wdg=2 bus=C7_x_293471b.1.0 kv=0.12 kva=25   wdg=3 bus=C7_x_293471b.0.2 kv=0.12 kva=25   %imag=0.5 %rs=[0.6 1.2 1.2] %noloadloss=.2 xhl=2.04  xht=2.04  xlt=1.36 
new transformer.C7_t5293471c         phases=1 windings=3  wdg=1 bus=C7_293471.3   kv=7.2 kva=25   wdg=2 bus=C7_x_293471c.1.0 kv=0.12 kva=25   wdg=3 bus=C7_x_293471c.0.2 kv=0.12 kva=25   %imag=0.5 %rs=[0.6 1.2 1.2] %noloadloss=.2 xhl=2.04  xht=2.04  xlt=1.36 
new transformer.C7_t5338954a         phases=1 windings=3  wdg=1 bus=C7_l2860482.1 kv=7.2 kva=25   wdg=2 bus=C7_x2860482a.1.0 kv=0.12 kva=25   wdg=3 bus=C7_x2860482a.0.2 kv=0.12 kva=25   %imag=0.5 %rs=[0.6 1.2 1.2] %noloadloss=.2 xhl=2.04  xht=2.04  xlt=1.36 
new transformer.C7_t21459629c        phases=1 windings=3  wdg=1 bus=C7_l2763811.3 kv=7.2 kva=75   wdg=2 bus=C7_x2763811c.1.0 kv=0.12 kva=75   wdg=3 bus=C7_x2763811c.0.2 kv=0.12 kva=75   %imag=0.5 %rs=[0.6 1.2 1.2] %noloadloss=.2 xhl=2.04  xht=2.04  xlt=1.36 
new transformer.C7_t5260562a         phases=1 windings=3  wdg=1 bus=C7_l3251799.1 kv=7.2 kva=37.5 wdg=2 bus=C7_x3251799a.1.0 kv=0.12 kva=37.5 wdg=3 bus=C7_x3251799a.0.2 kv=0.12 kva=37.5 %imag=0.5 %rs=[0.6 1.2 1.2] %noloadloss=.2 xhl=2.04  xht=2.04  xlt=1.36 
new transformer.C7_t21393486c        phases=1 windings=3  wdg=1 bus=C7_l2898526.3 kv=7.2 kva=15   wdg=2 bus=C7_x2898526c.1.0 kv=0.12 kva=15   wdg=3 bus=C7_x2898526c.0.2 kv=0.12 kva=15   %imag=0.5 %rs=[0.6 1.2 1.2] %noloadloss=.2 xhl=2.04  xht=2.04  xlt=1.36 
new transformer.C7_t5293518b         phases=1 windings=3  wdg=1 bus=C7_l2897780.2 kv=7.2 kva=25   wdg=2 bus=C7_x2897780b.1.0 kv=0.12 kva=25   wdg=3 bus=C7_x2897780b.0.2 kv=0.12 kva=25   %imag=0.5 %rs=[0.6 1.2 1.2] %noloadloss=.2 xhl=2.04  xht=2.04  xlt=1.36 
new transformer.C7_t226195194c       phases=1 windings=3  wdg=1 bus=C7_l3027124.3 kv=7.2 kva=25   wdg=2 bus=C7_x3027124c.1.0 kv=0.12 kva=25   wdg=3 bus=C7_x3027124c.0.2 kv=0.12 kva=25   %imag=0.5 %rs=[0.6 1.2 1.2] %noloadloss=.2 xhl=2.04  xht=2.04  xlt=1.36 
new transformer.C7_t21383494b        phases=1 windings=3  wdg=1 bus=C7_l2954361.2 kv=7.2 kva=25   wdg=2 bus=C7_x2954361b.1.0 kv=0.12 kva=25   wdg=3 bus=C7_x2954361b.0.2 kv=0.12 kva=25   %imag=0.5 %rs=[0.6 1.2 1.2] %noloadloss=.2 xhl=2.04  xht=2.04  xlt=1.36 
new transformer.C7_t5251863c         phases=1 windings=3  wdg=1 bus=C7_l2745811.3 kv=7.2 kva=25   wdg=2 bus=C7_x2745811c.1.0 kv=0.12 kva=25   wdg=3 bus=C7_x2745811c.0.2 kv=0.12 kva=25   %imag=0.5 %rs=[0.6 1.2 1.2] %noloadloss=.2 xhl=2.04  xht=2.04  xlt=1.36 
new transformer.C7_t5293645a         phases=1 windings=3  wdg=1 bus=C7_l2841633.1 kv=7.2 kva=25   wdg=2 bus=C7_x2841633a.1.0 kv=0.12 kva=25   wdg=3 bus=C7_x2841633a.0.2 kv=0.12 kva=25   %imag=0.5 %rs=[0.6 1.2 1.2] %noloadloss=.2 xhl=2.04  xht=2.04  xlt=1.36 
new transformer.C7_t21482431a        phases=1 windings=3  wdg=1 bus=C7_l2917359.1 kv=7.2 kva=15   wdg=2 bus=C7_x2917359a.1.0 kv=0.12 kva=15   wdg=3 bus=C7_x2917359a.0.2 kv=0.12 kva=15   %imag=0.5 %rs=[0.6 1.2 1.2] %noloadloss=.2 xhl=2.04  xht=2.04  xlt=1.36 
new transformer.C7_t5293480a         phases=1 windings=3  wdg=1 bus=C7_l2748158.1 kv=7.2 kva=15   wdg=2 bus=C7_x2748158a.1.0 kv=0.12 kva=15   wdg=3 bus=C7_x2748158a.0.2 kv=0.12 kva=15   %imag=0.5 %rs=[0.6 1.2 1.2] %noloadloss=.2 xhl=2.04  xht=2.04  xlt=1.36 
new transformer.C7_t21469911a        phases=1 windings=3  wdg=1 bus=C7_l2955047.1 kv=7.2 kva=25   wdg=2 bus=C7_x2955047a.1.0 kv=0.12 kva=25   wdg=3 bus=C7_x2955047a.0.2 kv=0.12 kva=25   %imag=0.5 %rs=[0.6 1.2 1.2] %noloadloss=.2 xhl=2.04  xht=2.04  xlt=1.36 
new transformer.C7_t5355432c         phases=1 windings=3  wdg=1 bus=C7_l3122837.3 kv=7.2 kva=37.5 wdg=2 bus=C7_x3122837c.1.0 kv=0.12 kva=37.5 wdg=3 bus=C7_x3122837c.0.2 kv=0.12 kva=37.5 %imag=0.5 %rs=[0.6 1.2 1.2] %noloadloss=.2 xhl=2.04  xht=2.04  xlt=1.36 
new transformer.C7_t5323285b         phases=1 windings=3  wdg=1 bus=C7_l2804269.2 kv=7.2 kva=25   wdg=2 bus=C7_x2804269b.1.0 kv=0.12 kva=25   wdg=3 bus=C7_x2804269b.0.2 kv=0.12 kva=25   %imag=0.5 %rs=[0.6 1.2 1.2] %noloadloss=.2 xhl=2.04  xht=2.04  xlt=1.36 
new transformer.C7_t226192954c       phases=1 windings=3  wdg=1 bus=C7_l3157708.3 kv=7.2 kva=15   wdg=2 bus=C7_x3157708c.1.0 kv=0.12 kva=15   wdg=3 bus=C7_x3157708c.0.2 kv=0.12 kva=15   %imag=0.5 %rs=[0.6 1.2 1.2] %noloadloss=.2 xhl=2.04  xht=2.04  xlt=1.36 
new transformer.C7_t5207292c         phases=1 windings=3  wdg=1 bus=C7_l3179682.3 kv=7.2 kva=15   wdg=2 bus=C7_x3179682c.1.0 kv=0.12 kva=15   wdg=3 bus=C7_x3179682c.0.2 kv=0.12 kva=15   %imag=0.5 %rs=[0.6 1.2 1.2] %noloadloss=.2 xhl=2.04  xht=2.04  xlt=1.36 
new transformer.C7_t5337672b         phases=1 windings=3  wdg=1 bus=C7_l2822877.2 kv=7.2 kva=15   wdg=2 bus=C7_x2822877b.1.0 kv=0.12 kva=15   wdg=3 bus=C7_x2822877b.0.2 kv=0.12 kva=15   %imag=0.5 %rs=[0.6 1.2 1.2] %noloadloss=.2 xhl=2.04  xht=2.04  xlt=1.36 
new transformer.C7_t5442373c         phases=1 windings=3  wdg=1 bus=C7_l3141393.3 kv=7.2 kva=25   wdg=2 bus=C7_x3141393c.1.0 kv=0.12 kva=25   wdg=3 bus=C7_x3141393c.0.2 kv=0.12 kva=25   %imag=0.5 %rs=[0.6 1.2 1.2] %noloadloss=.2 xhl=2.04  xht=2.04  xlt=1.36 
new transformer.C7_t21470405a        phases=1 windings=3  wdg=1 bus=C7_l2897801.1 kv=7.2 kva=37.5 wdg=2 bus=C7_x2897801a.1.0 kv=0.12 kva=37.5 wdg=3 bus=C7_x2897801a.0.2 kv=0.12 kva=37.5 %imag=0.5 %rs=[0.6 1.2 1.2] %noloadloss=.2 xhl=2.04  xht=2.04  xlt=1.36 
new transformer.C7_t5218474a         phases=1 windings=3  wdg=1 bus=C7_l3217056.1 kv=7.2 kva=50   wdg=2 bus=C7_x3217056a.1.0 kv=0.12 kva=50   wdg=3 bus=C7_x3217056a.0.2 kv=0.12 kva=50   %imag=0.5 %rs=[0.6 1.2 1.2] %noloadloss=.2 xhl=2.04  xht=2.04  xlt=1.36 
new transformer.C7_t5218472a         phases=1 windings=3  wdg=1 bus=C7_l2936270.1 kv=7.2 kva=25   wdg=2 bus=C7_x2936270a.1.0 kv=0.12 kva=25   wdg=3 bus=C7_x2936270a.0.2 kv=0.12 kva=25   %imag=0.5 %rs=[0.6 1.2 1.2] %noloadloss=.2 xhl=2.04  xht=2.04  xlt=1.36 
new transformer.C7_t5356014a         phases=1 windings=3  wdg=1 bus=C7_l3235249.1 kv=7.2 kva=10   wdg=2 bus=C7_x3235249a.1.0 kv=0.12 kva=10   wdg=3 bus=C7_x3235249a.0.2 kv=0.12 kva=10   %imag=0.5 %rs=[0.6 1.2 1.2] %noloadloss=.2 xhl=2.04  xht=2.04  xlt=1.36 
new transformer.C7_t5260528c         phases=1 windings=3  wdg=1 bus=C7_l3217052.3 kv=7.2 kva=25   wdg=2 bus=C7_x3217052c.1.0 kv=0.12 kva=25   wdg=3 bus=C7_x3217052c.0.2 kv=0.12 kva=25   %imag=0.5 %rs=[0.6 1.2 1.2] %noloadloss=.2 xhl=2.04  xht=2.04  xlt=1.36 
new transformer.C7_t5355933a         phases=1 windings=3  wdg=1 bus=C7_l2916598.1 kv=7.2 kva=10   wdg=2 bus=C7_x2916598a.1.0 kv=0.12 kva=10   wdg=3 bus=C7_x2916598a.0.2 kv=0.12 kva=10   %imag=0.5 %rs=[0.6 1.2 1.2] %noloadloss=.2 xhl=2.04  xht=2.04  xlt=1.36 
new transformer.C7_t5138649a         phases=1 windings=3  wdg=1 bus=C7_l3048206.1 kv=7.2 kva=25   wdg=2 bus=C7_x3048206a.1.0 kv=0.12 kva=25   wdg=3 bus=C7_x3048206a.0.2 kv=0.12 kva=25   %imag=0.5 %rs=[0.6 1.2 1.2] %noloadloss=.2 xhl=2.04  xht=2.04  xlt=1.36 
new transformer.C7_t5391978c         phases=1 windings=3  wdg=1 bus=C7_l3141402.3 kv=7.2 kva=25   wdg=2 bus=C7_x3141402c.1.0 kv=0.12 kva=25   wdg=3 bus=C7_x3141402c.0.2 kv=0.12 kva=25   %imag=0.5 %rs=[0.6 1.2 1.2] %noloadloss=.2 xhl=2.04  xht=2.04  xlt=1.36 
new transformer.C7_t5138642a         phases=1 windings=3  wdg=1 bus=C7_l3235256.1 kv=7.2 kva=15   wdg=2 bus=C7_x3235256a.1.0 kv=0.12 kva=15   wdg=3 bus=C7_x3235256a.0.2 kv=0.12 kva=15   %imag=0.5 %rs=[0.6 1.2 1.2] %noloadloss=.2 xhl=2.04  xht=2.04  xlt=1.36 
new transformer.C7_t21149420a        phases=1 windings=3  wdg=1 bus=C7_l3178973.1 kv=7.2 kva=25   wdg=2 bus=C7_x3178973a.1.0 kv=0.12 kva=25   wdg=3 bus=C7_x3178973a.0.2 kv=0.12 kva=25   %imag=0.5 %rs=[0.6 1.2 1.2] %noloadloss=.2 xhl=2.04  xht=2.04  xlt=1.36 
new transformer.C7_t21382992a        phases=1 windings=3  wdg=1 bus=C7_l3197654.1 kv=7.2 kva=25   wdg=2 bus=C7_x3197654a.1.0 kv=0.12 kva=25   wdg=3 bus=C7_x3197654a.0.2 kv=0.12 kva=25   %imag=0.5 %rs=[0.6 1.2 1.2] %noloadloss=.2 xhl=2.04  xht=2.04  xlt=1.36 
new transformer.C7_t5338958c         phases=1 windings=3  wdg=1 bus=C7_l3066809.3 kv=7.2 kva=25   wdg=2 bus=C7_x3066809c.1.0 kv=0.12 kva=25   wdg=3 bus=C7_x3066809c.0.2 kv=0.12 kva=25   %imag=0.5 %rs=[0.6 1.2 1.2] %noloadloss=.2 xhl=2.04  xht=2.04  xlt=1.36 
new transformer.C7_t5355585b         phases=1 windings=3  wdg=1 bus=C7_l2766742.2 kv=7.2 kva=15   wdg=2 bus=C7_x2766742b.1.0 kv=0.12 kva=15   wdg=3 bus=C7_x2766742b.0.2 kv=0.12 kva=15   %imag=0.5 %rs=[0.6 1.2 1.2] %noloadloss=.2 xhl=2.04  xht=2.04  xlt=1.36 
new transformer.C7_t5338900a         phases=1 windings=3  wdg=1 bus=C7_l2991908.1 kv=7.2 kva=15   wdg=2 bus=C7_x2991908a.1.0 kv=0.12 kva=15   wdg=3 bus=C7_x2991908a.0.2 kv=0.12 kva=15   %imag=0.5 %rs=[0.6 1.2 1.2] %noloadloss=.2 xhl=2.04  xht=2.04  xlt=1.36 
new transformer.C7_t5323389b         phases=1 windings=3  wdg=1 bus=C7_l3065750.2 kv=7.2 kva=25   wdg=2 bus=C7_x3065750b.1.0 kv=0.12 kva=25   wdg=3 bus=C7_x3065750b.0.2 kv=0.12 kva=25   %imag=0.5 %rs=[0.6 1.2 1.2] %noloadloss=.2 xhl=2.04  xht=2.04  xlt=1.36 
new transformer.C7_t28127253a        phases=1 windings=3  wdg=1 bus=C7_l3085401.1 kv=7.2 kva=37.5 wdg=2 bus=C7_x3085401a.1.0 kv=0.12 kva=37.5 wdg=3 bus=C7_x3085401a.0.2 kv=0.12 kva=37.5 %imag=0.5 %rs=[0.6 1.2 1.2] %noloadloss=.2 xhl=2.04  xht=2.04  xlt=1.36 
new transformer.C7_t21397067a        phases=1 windings=3  wdg=1 bus=C7_l2729413.1 kv=7.2 kva=15   wdg=2 bus=C7_x2729413a.1.0 kv=0.12 kva=15   wdg=3 bus=C7_x2729413a.0.2 kv=0.12 kva=15   %imag=0.5 %rs=[0.6 1.2 1.2] %noloadloss=.2 xhl=2.04  xht=2.04  xlt=1.36 
new transformer.C7_t5260520b         phases=1 windings=3  wdg=1 bus=C7_l3254915.2 kv=7.2 kva=5    wdg=2 bus=C7_x3254915b.1.0 kv=0.12 kva=5    wdg=3 bus=C7_x3254915b.0.2 kv=0.12 kva=5    %imag=0.5 %rs=[0.6 1.2 1.2] %noloadloss=.2 xhl=2.04  xht=2.04  xlt=1.36 
new transformer.C7_t5323250b         phases=1 windings=3  wdg=1 bus=C7_l2748131.2 kv=7.2 kva=15   wdg=2 bus=C7_x2748131b.1.0 kv=0.12 kva=15   wdg=3 bus=C7_x2748131b.0.2 kv=0.12 kva=15   %imag=0.5 %rs=[0.6 1.2 1.2] %noloadloss=.2 xhl=2.04  xht=2.04  xlt=1.36 
new transformer.C7_t5337659c         phases=1 windings=3  wdg=1 bus=C7_l3066810.3 kv=7.2 kva=25   wdg=2 bus=C7_x3066810c.1.0 kv=0.12 kva=25   wdg=3 bus=C7_x3066810c.0.2 kv=0.12 kva=25   %imag=0.5 %rs=[0.6 1.2 1.2] %noloadloss=.2 xhl=2.04  xht=2.04  xlt=1.36 
new transformer.C7_t28118903b        phases=1 windings=3  wdg=1 bus=C7_l2973146.2 kv=7.2 kva=25   wdg=2 bus=C7_x2973146b.1.0 kv=0.12 kva=25   wdg=3 bus=C7_x2973146b.0.2 kv=0.12 kva=25   %imag=0.5 %rs=[0.6 1.2 1.2] %noloadloss=.2 xhl=2.04  xht=2.04  xlt=1.36 
new transformer.C7_t21398646b        phases=1 windings=3  wdg=1 bus=C7_l2973180.2 kv=7.2 kva=25   wdg=2 bus=C7_x2973180b.1.0 kv=0.12 kva=25   wdg=3 bus=C7_x2973180b.0.2 kv=0.12 kva=25   %imag=0.5 %rs=[0.6 1.2 1.2] %noloadloss=.2 xhl=2.04  xht=2.04  xlt=1.36 
new transformer.C7_t5293656b         phases=1 windings=3  wdg=1 bus=C7_l2973167.2 kv=7.2 kva=15   wdg=2 bus=C7_x2973167b.1.0 kv=0.12 kva=15   wdg=3 bus=C7_x2973167b.0.2 kv=0.12 kva=15   %imag=0.5 %rs=[0.6 1.2 1.2] %noloadloss=.2 xhl=2.04  xht=2.04  xlt=1.36 
new transformer.C7_t5338910c         phases=1 windings=3  wdg=1 bus=C7_l2841621.3 kv=7.2 kva=25   wdg=2 bus=C7_x2841621c.1.0 kv=0.12 kva=25   wdg=3 bus=C7_x2841621c.0.2 kv=0.12 kva=25   %imag=0.5 %rs=[0.6 1.2 1.2] %noloadloss=.2 xhl=2.04  xht=2.04  xlt=1.36 
new transformer.C7_t28129923c        phases=1 windings=3  wdg=1 bus=C7_l3123509.3 kv=7.2 kva=15   wdg=2 bus=C7_x3123509c.1.0 kv=0.12 kva=15   wdg=3 bus=C7_x3123509c.0.2 kv=0.12 kva=15   %imag=0.5 %rs=[0.6 1.2 1.2] %noloadloss=.2 xhl=2.04  xht=2.04  xlt=1.36 
new transformer.C7_t5337716a         phases=1 windings=3  wdg=1 bus=C7_l2841627.1 kv=7.2 kva=15   wdg=2 bus=C7_x2841627a.1.0 kv=0.12 kva=15   wdg=3 bus=C7_x2841627a.0.2 kv=0.12 kva=15   %imag=0.5 %rs=[0.6 1.2 1.2] %noloadloss=.2 xhl=2.04  xht=2.04  xlt=1.36 
new transformer.C7_t5337698b         phases=1 windings=3  wdg=1 bus=C7_l3235250.2 kv=7.2 kva=10   wdg=2 bus=C7_x3235250b.1.0 kv=0.12 kva=10   wdg=3 bus=C7_x3235250b.0.2 kv=0.12 kva=10   %imag=0.5 %rs=[0.6 1.2 1.2] %noloadloss=.2 xhl=2.04  xht=2.04  xlt=1.36 
new transformer.C7_t2224386946a      phases=1 windings=3  wdg=1 bus=C7_l3728037.1 kv=7.2 kva=25   wdg=2 bus=C7_x3728037a.1.0 kv=0.12 kva=25   wdg=3 bus=C7_x3728037a.0.2 kv=0.12 kva=25   %imag=0.5 %rs=[0.6 1.2 1.2] %noloadloss=.2 xhl=2.04  xht=2.04  xlt=1.36 
new transformer.C7_t5330121b         phases=1 windings=3  wdg=1 bus=C7_l3142078.2 kv=7.2 kva=10   wdg=2 bus=C7_x3142078b.1.0 kv=0.12 kva=10   wdg=3 bus=C7_x3142078b.0.2 kv=0.12 kva=10   %imag=0.5 %rs=[0.6 1.2 1.2] %noloadloss=.2 xhl=2.04  xht=2.04  xlt=1.36 
new transformer.C7_t5323252b         phases=1 windings=3  wdg=1 bus=C7_l2879066.2 kv=7.2 kva=15   wdg=2 bus=C7_x2879066b.1.0 kv=0.12 kva=15   wdg=3 bus=C7_x2879066b.0.2 kv=0.12 kva=15   %imag=0.5 %rs=[0.6 1.2 1.2] %noloadloss=.2 xhl=2.04  xht=2.04  xlt=1.36 
new transformer.C7_t5441331c         phases=1 windings=3  wdg=1 bus=C7_l3235254.3 kv=7.2 kva=25   wdg=2 bus=C7_x3235254c.1.0 kv=0.12 kva=25   wdg=3 bus=C7_x3235254c.0.2 kv=0.12 kva=25   %imag=0.5 %rs=[0.6 1.2 1.2] %noloadloss=.2 xhl=2.04  xht=2.04  xlt=1.36 
new transformer.C7_t5260474a         phases=1 windings=3  wdg=1 bus=C7_l2917330.1 kv=7.2 kva=25   wdg=2 bus=C7_x2917330a.1.0 kv=0.12 kva=25   wdg=3 bus=C7_x2917330a.0.2 kv=0.12 kva=25   %imag=0.5 %rs=[0.6 1.2 1.2] %noloadloss=.2 xhl=2.04  xht=2.04  xlt=1.36 
new transformer.C7_t5355376b         phases=1 windings=3  wdg=1 bus=C7_l2914323.2 kv=7.2 kva=10   wdg=2 bus=C7_x2914323b.1.0 kv=0.12 kva=10   wdg=3 bus=C7_x2914323b.0.2 kv=0.12 kva=10   %imag=0.5 %rs=[0.6 1.2 1.2] %noloadloss=.2 xhl=2.04  xht=2.04  xlt=1.36 
new transformer.C7_t5338944c         phases=1 windings=3  wdg=1 bus=C7_l3197640.3 kv=7.2 kva=10   wdg=2 bus=C7_x3197640c.1.0 kv=0.12 kva=10   wdg=3 bus=C7_x3197640c.0.2 kv=0.12 kva=10   %imag=0.5 %rs=[0.6 1.2 1.2] %noloadloss=.2 xhl=2.04  xht=2.04  xlt=1.36 
new transformer.C7_t5260640c         phases=1 windings=3  wdg=1 bus=C7_l3179673.3 kv=7.2 kva=15   wdg=2 bus=C7_x3179673c.1.0 kv=0.12 kva=15   wdg=3 bus=C7_x3179673c.0.2 kv=0.12 kva=15   %imag=0.5 %rs=[0.6 1.2 1.2] %noloadloss=.2 xhl=2.04  xht=2.04  xlt=1.36 
new transformer.C7_t5274997c         phases=1 windings=3  wdg=1 bus=C7_l3048228.3 kv=7.2 kva=25   wdg=2 bus=C7_x3048228c.1.0 kv=0.12 kva=25   wdg=3 bus=C7_x3048228c.0.2 kv=0.12 kva=25   %imag=0.5 %rs=[0.6 1.2 1.2] %noloadloss=.2 xhl=2.04  xht=2.04  xlt=1.36 
new transformer.C7_t5138372c         phases=1 windings=3  wdg=1 bus=C7_l3104126.3 kv=7.2 kva=10   wdg=2 bus=C7_x3104126c.1.0 kv=0.12 kva=10   wdg=3 bus=C7_x3104126c.0.2 kv=0.12 kva=10   %imag=0.5 %rs=[0.6 1.2 1.2] %noloadloss=.2 xhl=2.04  xht=2.04  xlt=1.36 
new transformer.C7_t226308721a       phases=1 windings=3  wdg=1 bus=C7_l2990098.1 kv=7.2 kva=50   wdg=2 bus=C7_x2990098a.1.0 kv=0.12 kva=50   wdg=3 bus=C7_x2990098a.0.2 kv=0.12 kva=50   %imag=0.5 %rs=[0.6 1.2 1.2] %noloadloss=.2 xhl=2.04  xht=2.04  xlt=1.36 
new transformer.C7_t21380616a        phases=1 windings=3  wdg=1 bus=C7_l2879067.1 kv=7.2 kva=25   wdg=2 bus=C7_x2879067a.1.0 kv=0.12 kva=25   wdg=3 bus=C7_x2879067a.0.2 kv=0.12 kva=25   %imag=0.5 %rs=[0.6 1.2 1.2] %noloadloss=.2 xhl=2.04  xht=2.04  xlt=1.36 
new transformer.C7_t226193170a       phases=1 windings=3  wdg=1 bus=C7_l3176656.1 kv=7.2 kva=25   wdg=2 bus=C7_x3176656a.1.0 kv=0.12 kva=25   wdg=3 bus=C7_x3176656a.0.2 kv=0.12 kva=25   %imag=0.5 %rs=[0.6 1.2 1.2] %noloadloss=.2 xhl=2.04  xht=2.04  xlt=1.36 
new transformer.C7_t5293666c         phases=1 windings=3  wdg=1 bus=C7_l2710532.3 kv=7.2 kva=10   wdg=2 bus=C7_x2710532c.1.0 kv=0.12 kva=10   wdg=3 bus=C7_x2710532c.0.2 kv=0.12 kva=10   %imag=0.5 %rs=[0.6 1.2 1.2] %noloadloss=.2 xhl=2.04  xht=2.04  xlt=1.36 
new transformer.C7_t5338994b         phases=1 windings=3  wdg=1 bus=C7_l3160115.2 kv=7.2 kva=50   wdg=2 bus=C7_x3160115b.1.0 kv=0.12 kva=50   wdg=3 bus=C7_x3160115b.0.2 kv=0.12 kva=50   %imag=0.5 %rs=[0.6 1.2 1.2] %noloadloss=.2 xhl=2.04  xht=2.04  xlt=1.36 
new transformer.C7_t228665517c       phases=1 windings=3  wdg=1 bus=C7_l3103822.3 kv=7.2 kva=37.5 wdg=2 bus=C7_x3103822c.1.0 kv=0.12 kva=37.5 wdg=3 bus=C7_x3103822c.0.2 kv=0.12 kva=37.5 %imag=0.5 %rs=[0.6 1.2 1.2] %noloadloss=.2 xhl=2.04  xht=2.04  xlt=1.36 
new transformer.C7_t5260647a         phases=1 windings=3  wdg=1 bus=C7_l2805034.1 kv=7.2 kva=10   wdg=2 bus=C7_x2805034a.1.0 kv=0.12 kva=10   wdg=3 bus=C7_x2805034a.0.2 kv=0.12 kva=10   %imag=0.5 %rs=[0.6 1.2 1.2] %noloadloss=.2 xhl=2.04  xht=2.04  xlt=1.36 
new transformer.C7_t226115278a       phases=1 windings=3  wdg=1 bus=C7_l3157167.1 kv=7.2 kva=15   wdg=2 bus=C7_x3157167a.1.0 kv=0.12 kva=15   wdg=3 bus=C7_x3157167a.0.2 kv=0.12 kva=15   %imag=0.5 %rs=[0.6 1.2 1.2] %noloadloss=.2 xhl=2.04  xht=2.04  xlt=1.36 
new transformer.C7_t5338977a         phases=1 windings=3  wdg=1 bus=C7_l2916620.1 kv=7.2 kva=10   wdg=2 bus=C7_x2916620a.1.0 kv=0.12 kva=10   wdg=3 bus=C7_x2916620a.0.2 kv=0.12 kva=10   %imag=0.5 %rs=[0.6 1.2 1.2] %noloadloss=.2 xhl=2.04  xht=2.04  xlt=1.36 
new transformer.C7_t5338977b         phases=1 windings=3  wdg=1 bus=C7_l2916620.2 kv=7.2 kva=10   wdg=2 bus=C7_x2916620b.1.0 kv=0.12 kva=10   wdg=3 bus=C7_x2916620b.0.2 kv=0.12 kva=10   %imag=0.5 %rs=[0.6 1.2 1.2] %noloadloss=.2 xhl=2.04  xht=2.04  xlt=1.36 
new transformer.C7_t5338977c         phases=1 windings=3  wdg=1 bus=C7_l2916620.3 kv=7.2 kva=10   wdg=2 bus=C7_x2916620c.1.0 kv=0.12 kva=10   wdg=3 bus=C7_x2916620c.0.2 kv=0.12 kva=10   %imag=0.5 %rs=[0.6 1.2 1.2] %noloadloss=.2 xhl=2.04  xht=2.04  xlt=1.36 
new transformer.C7_t5321876a         phases=1 windings=3  wdg=1 bus=C7_l3027132.1 kv=7.2 kva=15   wdg=2 bus=C7_x3027132a.1.0 kv=0.12 kva=15   wdg=3 bus=C7_x3027132a.0.2 kv=0.12 kva=15   %imag=0.5 %rs=[0.6 1.2 1.2] %noloadloss=.2 xhl=2.04  xht=2.04  xlt=1.36 
new transformer.C7_t5275001c         phases=1 windings=3  wdg=1 bus=C7_l2822862.3 kv=7.2 kva=15   wdg=2 bus=C7_x2822862c.1.0 kv=0.12 kva=15   wdg=3 bus=C7_x2822862c.0.2 kv=0.12 kva=15   %imag=0.5 %rs=[0.6 1.2 1.2] %noloadloss=.2 xhl=2.04  xht=2.04  xlt=1.36 
new transformer.C7_t227411650c       phases=1 windings=3  wdg=1 bus=C7_l2937757.3 kv=7.2 kva=25   wdg=2 bus=C7_x2937757c.1.0 kv=0.12 kva=25   wdg=3 bus=C7_x2937757c.0.2 kv=0.12 kva=25   %imag=0.5 %rs=[0.6 1.2 1.2] %noloadloss=.2 xhl=2.04  xht=2.04  xlt=1.36 
new transformer.C7_t21396699b        phases=1 windings=3  wdg=1 bus=C7_l2860483.2 kv=7.2 kva=25   wdg=2 bus=C7_x2860483b.1.0 kv=0.12 kva=25   wdg=3 bus=C7_x2860483b.0.2 kv=0.12 kva=25   %imag=0.5 %rs=[0.6 1.2 1.2] %noloadloss=.2 xhl=2.04  xht=2.04  xlt=1.36 
new transformer.C7_t5302412a         phases=1 windings=3  wdg=1 bus=C7_l3048210.1 kv=7.2 kva=37.5 wdg=2 bus=C7_x3048210a.1.0 kv=0.12 kva=37.5 wdg=3 bus=C7_x3048210a.0.2 kv=0.12 kva=37.5 %imag=0.5 %rs=[0.6 1.2 1.2] %noloadloss=.2 xhl=2.04  xht=2.04  xlt=1.36 
new transformer.C7_t2223661373a      phases=1 windings=3  wdg=1 bus=C7_l3312692.1 kv=7.2 kva=25   wdg=2 bus=C7_x3312692a.1.0 kv=0.12 kva=25   wdg=3 bus=C7_x3312692a.0.2 kv=0.12 kva=25   %imag=0.5 %rs=[0.6 1.2 1.2] %noloadloss=.2 xhl=2.04  xht=2.04  xlt=1.36 
new transformer.C7_t226881700a       phases=1 windings=3  wdg=1 bus=C7_l3251854.1 kv=7.2 kva=25   wdg=2 bus=C7_x3251854a.1.0 kv=0.12 kva=25   wdg=3 bus=C7_x3251854a.0.2 kv=0.12 kva=25   %imag=0.5 %rs=[0.6 1.2 1.2] %noloadloss=.2 xhl=2.04  xht=2.04  xlt=1.36 
new transformer.C7_t5355777b         phases=1 windings=3  wdg=1 bus=C7_l3085398.2 kv=7.2 kva=25   wdg=2 bus=C7_x3085398b.1.0 kv=0.12 kva=25   wdg=3 bus=C7_x3085398b.0.2 kv=0.12 kva=25   %imag=0.5 %rs=[0.6 1.2 1.2] %noloadloss=.2 xhl=2.04  xht=2.04  xlt=1.36 
new transformer.C7_t5337671a         phases=1 windings=3  wdg=1 bus=C7_l3254207.1 kv=7.2 kva=15   wdg=2 bus=C7_x3254207a.1.0 kv=0.12 kva=15   wdg=3 bus=C7_x3254207a.0.2 kv=0.12 kva=15   %imag=0.5 %rs=[0.6 1.2 1.2] %noloadloss=.2 xhl=2.04  xht=2.04  xlt=1.36 
new transformer.C7_t5339018a         phases=1 windings=3  wdg=1 bus=C7_l2729424.1 kv=7.2 kva=15   wdg=2 bus=C7_x2729424a.1.0 kv=0.12 kva=15   wdg=3 bus=C7_x2729424a.0.2 kv=0.12 kva=15   %imag=0.5 %rs=[0.6 1.2 1.2] %noloadloss=.2 xhl=2.04  xht=2.04  xlt=1.36 
new transformer.C7_t21398676a        phases=1 windings=3  wdg=1 bus=C7_l3066816.1 kv=7.2 kva=15   wdg=2 bus=C7_x3066816a.1.0 kv=0.12 kva=15   wdg=3 bus=C7_x3066816a.0.2 kv=0.12 kva=15   %imag=0.5 %rs=[0.6 1.2 1.2] %noloadloss=.2 xhl=2.04  xht=2.04  xlt=1.36 
new transformer.C7_t5138469c         phases=1 windings=3  wdg=1 bus=C7_l2785518.3 kv=7.2 kva=15   wdg=2 bus=C7_x2785518c.1.0 kv=0.12 kva=15   wdg=3 bus=C7_x2785518c.0.2 kv=0.12 kva=15   %imag=0.5 %rs=[0.6 1.2 1.2] %noloadloss=.2 xhl=2.04  xht=2.04  xlt=1.36 
new transformer.C7_t5138373c         phases=1 windings=3  wdg=1 bus=C7_l3029503.3 kv=7.2 kva=15   wdg=2 bus=C7_x3029503c.1.0 kv=0.12 kva=15   wdg=3 bus=C7_x3029503c.0.2 kv=0.12 kva=15   %imag=0.5 %rs=[0.6 1.2 1.2] %noloadloss=.2 xhl=2.04  xht=2.04  xlt=1.36 
new transformer.C7_t5391995a         phases=1 windings=3  wdg=1 bus=C7_l2748140.1 kv=7.2 kva=25   wdg=2 bus=C7_x2748140a.1.0 kv=0.12 kva=25   wdg=3 bus=C7_x2748140a.0.2 kv=0.12 kva=25   %imag=0.5 %rs=[0.6 1.2 1.2] %noloadloss=.2 xhl=2.04  xht=2.04  xlt=1.36 
new transformer.C7_t225533423c       phases=1 windings=3  wdg=1 bus=C7_l2891575.3 kv=7.2 kva=15   wdg=2 bus=C7_x2891575c.1.0 kv=0.12 kva=15   wdg=3 bus=C7_x2891575c.0.2 kv=0.12 kva=15   %imag=0.5 %rs=[0.6 1.2 1.2] %noloadloss=.2 xhl=2.04  xht=2.04  xlt=1.36 
new transformer.C7_t5260568c         phases=1 windings=3  wdg=1 bus=C7_l2842329.3 kv=7.2 kva=15   wdg=2 bus=C7_x2842329c.1.0 kv=0.12 kva=15   wdg=3 bus=C7_x2842329c.0.2 kv=0.12 kva=15   %imag=0.5 %rs=[0.6 1.2 1.2] %noloadloss=.2 xhl=2.04  xht=2.04  xlt=1.36 
new transformer.C7_t5138754b         phases=1 windings=3  wdg=1 bus=C7_l3254212.2 kv=7.2 kva=37.5 wdg=2 bus=C7_x3254212b.1.0 kv=0.12 kva=37.5 wdg=3 bus=C7_x3254212b.0.2 kv=0.12 kva=37.5 %imag=0.5 %rs=[0.6 1.2 1.2] %noloadloss=.2 xhl=2.04  xht=2.04  xlt=1.36 
new transformer.C7_t5260552a         phases=1 windings=3  wdg=1 bus=C7_l3198348.1 kv=7.2 kva=50   wdg=2 bus=C7_x3198348a.1.0 kv=0.12 kva=50   wdg=3 bus=C7_x3198348a.0.2 kv=0.12 kva=50   %imag=0.5 %rs=[0.6 1.2 1.2] %noloadloss=.2 xhl=2.04  xht=2.04  xlt=1.36 
new transformer.C7_t5338968c         phases=1 windings=3  wdg=1 bus=C7_l3178979.3 kv=7.2 kva=37.5 wdg=2 bus=C7_x3178979c.1.0 kv=0.12 kva=37.5 wdg=3 bus=C7_x3178979c.0.2 kv=0.12 kva=37.5 %imag=0.5 %rs=[0.6 1.2 1.2] %noloadloss=.2 xhl=2.04  xht=2.04  xlt=1.36 
new transformer.C7_t5247061a         phases=1 windings=3  wdg=1 bus=C7_l2879054.1 kv=7.2 kva=25   wdg=2 bus=C7_x2879054a.1.0 kv=0.12 kva=25   wdg=3 bus=C7_x2879054a.0.2 kv=0.12 kva=25   %imag=0.5 %rs=[0.6 1.2 1.2] %noloadloss=.2 xhl=2.04  xht=2.04  xlt=1.36 
new transformer.C7_t5391746b         phases=1 windings=3  wdg=1 bus=C7_l3085388.2 kv=7.2 kva=10   wdg=2 bus=C7_x3085388b.1.0 kv=0.12 kva=10   wdg=3 bus=C7_x3085388b.0.2 kv=0.12 kva=10   %imag=0.5 %rs=[0.6 1.2 1.2] %noloadloss=.2 xhl=2.04  xht=2.04  xlt=1.36 
new transformer.C7_t5338941c         phases=1 windings=3  wdg=1 bus=C7_l2991914.3 kv=7.2 kva=15   wdg=2 bus=C7_x2991914c.1.0 kv=0.12 kva=15   wdg=3 bus=C7_x2991914c.0.2 kv=0.12 kva=15   %imag=0.5 %rs=[0.6 1.2 1.2] %noloadloss=.2 xhl=2.04  xht=2.04  xlt=1.36 
new transformer.C7_t5338982b         phases=1 windings=3  wdg=1 bus=C7_l2785534.2 kv=7.2 kva=25   wdg=2 bus=C7_x2785534b.1.0 kv=0.12 kva=25   wdg=3 bus=C7_x2785534b.0.2 kv=0.12 kva=25   %imag=0.5 %rs=[0.6 1.2 1.2] %noloadloss=.2 xhl=2.04  xht=2.04  xlt=1.36 
new transformer.C7_t5339008b         phases=1 windings=3  wdg=1 bus=C7_l3122835.2 kv=7.2 kva=15   wdg=2 bus=C7_x3122835b.1.0 kv=0.12 kva=15   wdg=3 bus=C7_x3122835b.0.2 kv=0.12 kva=15   %imag=0.5 %rs=[0.6 1.2 1.2] %noloadloss=.2 xhl=2.04  xht=2.04  xlt=1.36 
new transformer.C7_t21391094a        phases=1 windings=3  wdg=1 bus=C7_l3085395.1 kv=7.2 kva=15   wdg=2 bus=C7_x3085395a.1.0 kv=0.12 kva=15   wdg=3 bus=C7_x3085395a.0.2 kv=0.12 kva=15   %imag=0.5 %rs=[0.6 1.2 1.2] %noloadloss=.2 xhl=2.04  xht=2.04  xlt=1.36 
new transformer.C7_t5138581a         phases=1 windings=3  wdg=1 bus=C7_l2879064.1 kv=7.2 kva=25   wdg=2 bus=C7_x2879064a.1.0 kv=0.12 kva=25   wdg=3 bus=C7_x2879064a.0.2 kv=0.12 kva=25   %imag=0.5 %rs=[0.6 1.2 1.2] %noloadloss=.2 xhl=2.04  xht=2.04  xlt=1.36 
new transformer.C7_t5338979b         phases=1 windings=3  wdg=1 bus=C7_l3066814.2 kv=7.2 kva=10   wdg=2 bus=C7_x3066814b.1.0 kv=0.12 kva=10   wdg=3 bus=C7_x3066814b.0.2 kv=0.12 kva=10   %imag=0.5 %rs=[0.6 1.2 1.2] %noloadloss=.2 xhl=2.04  xht=2.04  xlt=1.36 
new transformer.C7_t226308720a       phases=1 windings=3  wdg=1 bus=C7_l2821087.1 kv=7.2 kva=75   wdg=2 bus=C7_x2821087a.1.0 kv=0.12 kva=75   wdg=3 bus=C7_x2821087a.0.2 kv=0.12 kva=75   %imag=0.5 %rs=[0.6 1.2 1.2] %noloadloss=.2 xhl=2.04  xht=2.04  xlt=1.36 
new transformer.C7_t5355595b         phases=1 windings=3  wdg=1 bus=C7_l2860479.2 kv=7.2 kva=10   wdg=2 bus=C7_x2860479b.1.0 kv=0.12 kva=10   wdg=3 bus=C7_x2860479b.0.2 kv=0.12 kva=10   %imag=0.5 %rs=[0.6 1.2 1.2] %noloadloss=.2 xhl=2.04  xht=2.04  xlt=1.36 
new transformer.C7_t2224387113a      phases=1 windings=3  wdg=1 bus=C7_l3728042.1 kv=7.2 kva=37.5 wdg=2 bus=C7_x3728042a.1.0 kv=0.12 kva=37.5 wdg=3 bus=C7_x3728042a.0.2 kv=0.12 kva=37.5 %imag=0.5 %rs=[0.6 1.2 1.2] %noloadloss=.2 xhl=2.04  xht=2.04  xlt=1.36 
new transformer.C7_t21397005a        phases=1 windings=3  wdg=1 bus=C7_l2935557.1 kv=7.2 kva=37.5 wdg=2 bus=C7_x2935557a.1.0 kv=0.12 kva=37.5 wdg=3 bus=C7_x2935557a.0.2 kv=0.12 kva=37.5 %imag=0.5 %rs=[0.6 1.2 1.2] %noloadloss=.2 xhl=2.04  xht=2.04  xlt=1.36 
new transformer.C7_t5274985c         phases=1 windings=3  wdg=1 bus=C7_l2822864.3 kv=7.2 kva=15   wdg=2 bus=C7_x2822864c.1.0 kv=0.12 kva=15   wdg=3 bus=C7_x2822864c.0.2 kv=0.12 kva=15   %imag=0.5 %rs=[0.6 1.2 1.2] %noloadloss=.2 xhl=2.04  xht=2.04  xlt=1.36 
new transformer.C7_t5321836a         phases=1 windings=3  wdg=1 bus=C7_l3235247.1 kv=7.2 kva=15   wdg=2 bus=C7_x3235247a.1.0 kv=0.12 kva=15   wdg=3 bus=C7_x3235247a.0.2 kv=0.12 kva=15   %imag=0.5 %rs=[0.6 1.2 1.2] %noloadloss=.2 xhl=2.04  xht=2.04  xlt=1.36 
new transformer.C7_t225673440a       phases=1 windings=3  wdg=1 bus=C7_l3251807.1 kv=7.2 kva=25   wdg=2 bus=C7_x3251807a.1.0 kv=0.12 kva=25   wdg=3 bus=C7_x3251807a.0.2 kv=0.12 kva=25   %imag=0.5 %rs=[0.6 1.2 1.2] %noloadloss=.2 xhl=2.04  xht=2.04  xlt=1.36 
new transformer.C7_t5337641c         phases=1 windings=3  wdg=1 bus=C7_l2804282.3 kv=7.2 kva=15   wdg=2 bus=C7_x2804282c.1.0 kv=0.12 kva=15   wdg=3 bus=C7_x2804282c.0.2 kv=0.12 kva=15   %imag=0.5 %rs=[0.6 1.2 1.2] %noloadloss=.2 xhl=2.04  xht=2.04  xlt=1.36 
new transformer.C7_t5293659c         phases=1 windings=3  wdg=1 bus=C7_l2935560.3 kv=7.2 kva=15   wdg=2 bus=C7_x2935560c.1.0 kv=0.12 kva=15   wdg=3 bus=C7_x2935560c.0.2 kv=0.12 kva=15   %imag=0.5 %rs=[0.6 1.2 1.2] %noloadloss=.2 xhl=2.04  xht=2.04  xlt=1.36 
new transformer.C7_t5339011b         phases=1 windings=3  wdg=1 bus=C7_l3104145.2 kv=7.2 kva=15   wdg=2 bus=C7_x3104145b.1.0 kv=0.12 kva=15   wdg=3 bus=C7_x3104145b.0.2 kv=0.12 kva=15   %imag=0.5 %rs=[0.6 1.2 1.2] %noloadloss=.2 xhl=2.04  xht=2.04  xlt=1.36 
new transformer.C7_t5218473a         phases=1 windings=3  wdg=1 bus=C7_l3086078.1 kv=7.2 kva=25   wdg=2 bus=C7_x3086078a.1.0 kv=0.12 kva=25   wdg=3 bus=C7_x3086078a.0.2 kv=0.12 kva=25   %imag=0.5 %rs=[0.6 1.2 1.2] %noloadloss=.2 xhl=2.04  xht=2.04  xlt=1.36 
new transformer.C7_t28121587a        phases=1 windings=3  wdg=1 bus=C7_l2860477.1 kv=7.2 kva=15   wdg=2 bus=C7_x2860477a.1.0 kv=0.12 kva=15   wdg=3 bus=C7_x2860477a.0.2 kv=0.12 kva=15   %imag=0.5 %rs=[0.6 1.2 1.2] %noloadloss=.2 xhl=2.04  xht=2.04  xlt=1.36 
new transformer.C7_t2224230689c      phases=1 windings=3  wdg=1 bus=C7_l3645811.3 kv=7.2 kva=75   wdg=2 bus=C7_x3645811c.1.0 kv=0.12 kva=75   wdg=3 bus=C7_x3645811c.0.2 kv=0.12 kva=75   %imag=0.5 %rs=[0.6 1.2 1.2] %noloadloss=.2 xhl=2.04  xht=2.04  xlt=1.36 
new transformer.C7_t227734175b       phases=1 windings=3  wdg=1 bus=C7_l3102793.2 kv=7.2 kva=25   wdg=2 bus=C7_x3102793b.1.0 kv=0.12 kva=25   wdg=3 bus=C7_x3102793b.0.2 kv=0.12 kva=25   %imag=0.5 %rs=[0.6 1.2 1.2] %noloadloss=.2 xhl=2.04  xht=2.04  xlt=1.36 
new transformer.C7_t5337694b         phases=1 windings=3  wdg=1 bus=C7_l2991910.2 kv=7.2 kva=15   wdg=2 bus=C7_x2991910b.1.0 kv=0.12 kva=15   wdg=3 bus=C7_x2991910b.0.2 kv=0.12 kva=15   %imag=0.5 %rs=[0.6 1.2 1.2] %noloadloss=.2 xhl=2.04  xht=2.04  xlt=1.36 
new transformer.C7_t21357515a        phases=1 windings=3  wdg=1 bus=C7_l2710511.1 kv=7.2 kva=25   wdg=2 bus=C7_x2710511a.1.0 kv=0.12 kva=25   wdg=3 bus=C7_x2710511a.0.2 kv=0.12 kva=25   %imag=0.5 %rs=[0.6 1.2 1.2] %noloadloss=.2 xhl=2.04  xht=2.04  xlt=1.36 
new transformer.C7_t28127390c        phases=1 windings=3  wdg=1 bus=C7_l2860486.3 kv=7.2 kva=15   wdg=2 bus=C7_x2860486c.1.0 kv=0.12 kva=15   wdg=3 bus=C7_x2860486c.0.2 kv=0.12 kva=15   %imag=0.5 %rs=[0.6 1.2 1.2] %noloadloss=.2 xhl=2.04  xht=2.04  xlt=1.36 
new transformer.C7_t21387929c        phases=1 windings=3  wdg=1 bus=C7_l2935551.3 kv=7.2 kva=15   wdg=2 bus=C7_x2935551c.1.0 kv=0.12 kva=15   wdg=3 bus=C7_x2935551c.0.2 kv=0.12 kva=15   %imag=0.5 %rs=[0.6 1.2 1.2] %noloadloss=.2 xhl=2.04  xht=2.04  xlt=1.36 
new transformer.C7_t5355605b         phases=1 windings=3  wdg=1 bus=C7_l2729409.2 kv=7.2 kva=25   wdg=2 bus=C7_x2729409b.1.0 kv=0.12 kva=25   wdg=3 bus=C7_x2729409b.0.2 kv=0.12 kva=25   %imag=0.5 %rs=[0.6 1.2 1.2] %noloadloss=.2 xhl=2.04  xht=2.04  xlt=1.36 
new transformer.C7_t5260630b         phases=1 windings=3  wdg=1 bus=C7_l2973833.2 kv=7.2 kva=15   wdg=2 bus=C7_x2973833b.1.0 kv=0.12 kva=15   wdg=3 bus=C7_x2973833b.0.2 kv=0.12 kva=15   %imag=0.5 %rs=[0.6 1.2 1.2] %noloadloss=.2 xhl=2.04  xht=2.04  xlt=1.36 
new transformer.C7_t5337660c         phases=1 windings=3  wdg=1 bus=C7_l2897769.3 kv=7.2 kva=25   wdg=2 bus=C7_x2897769c.1.0 kv=0.12 kva=25   wdg=3 bus=C7_x2897769c.0.2 kv=0.12 kva=25   %imag=0.5 %rs=[0.6 1.2 1.2] %noloadloss=.2 xhl=2.04  xht=2.04  xlt=1.36 
new transformer.C7_t5293663c         phases=1 windings=3  wdg=1 bus=C7_l3216368.3 kv=7.2 kva=15   wdg=2 bus=C7_x3216368c.1.0 kv=0.12 kva=15   wdg=3 bus=C7_x3216368c.0.2 kv=0.12 kva=15   %imag=0.5 %rs=[0.6 1.2 1.2] %noloadloss=.2 xhl=2.04  xht=2.04  xlt=1.36 
new transformer.C7_t5138719a         phases=1 windings=3  wdg=1 bus=C7_l2860490.1 kv=7.2 kva=25   wdg=2 bus=C7_x2860490a.1.0 kv=0.12 kva=25   wdg=3 bus=C7_x2860490a.0.2 kv=0.12 kva=25   %imag=0.5 %rs=[0.6 1.2 1.2] %noloadloss=.2 xhl=2.04  xht=2.04  xlt=1.36 
new transformer.C7_t5251858c         phases=1 windings=3  wdg=1 bus=C7_l2861158.3 kv=7.2 kva=25   wdg=2 bus=C7_x2861158c.1.0 kv=0.12 kva=25   wdg=3 bus=C7_x2861158c.0.2 kv=0.12 kva=25   %imag=0.5 %rs=[0.6 1.2 1.2] %noloadloss=.2 xhl=2.04  xht=2.04  xlt=1.36 
new transformer.C7_t5302804c         phases=1 windings=3  wdg=1 bus=C7_l3141399.3 kv=7.2 kva=37.5 wdg=2 bus=C7_x3141399c.1.0 kv=0.12 kva=37.5 wdg=3 bus=C7_x3141399c.0.2 kv=0.12 kva=37.5 %imag=0.5 %rs=[0.6 1.2 1.2] %noloadloss=.2 xhl=2.04  xht=2.04  xlt=1.36 
new transformer.C7_t5356062b         phases=1 windings=3  wdg=1 bus=C7_l3122816.2 kv=7.2 kva=25   wdg=2 bus=C7_x3122816b.1.0 kv=0.12 kva=25   wdg=3 bus=C7_x3122816b.0.2 kv=0.12 kva=25   %imag=0.5 %rs=[0.6 1.2 1.2] %noloadloss=.2 xhl=2.04  xht=2.04  xlt=1.36 
new transformer.C7_t5346639c         phases=1 windings=3  wdg=1 bus=C7_l2992556.3 kv=7.2 kva=15   wdg=2 bus=C7_x2992556c.1.0 kv=0.12 kva=15   wdg=3 bus=C7_x2992556c.0.2 kv=0.12 kva=15   %imag=0.5 %rs=[0.6 1.2 1.2] %noloadloss=.2 xhl=2.04  xht=2.04  xlt=1.36 
new transformer.C7_t5302508c         phases=1 windings=3  wdg=1 bus=C7_l2897779.3 kv=7.2 kva=25   wdg=2 bus=C7_x2897779c.1.0 kv=0.12 kva=25   wdg=3 bus=C7_x2897779c.0.2 kv=0.12 kva=25   %imag=0.5 %rs=[0.6 1.2 1.2] %noloadloss=.2 xhl=2.04  xht=2.04  xlt=1.36 
new transformer.C7_t5321881a         phases=1 windings=3  wdg=1 bus=C7_l2970811.1 kv=7.2 kva=25   wdg=2 bus=C7_x2970811a.1.0 kv=0.12 kva=25   wdg=3 bus=C7_x2970811a.0.2 kv=0.12 kva=25   %imag=0.5 %rs=[0.6 1.2 1.2] %noloadloss=.2 xhl=2.04  xht=2.04  xlt=1.36 
new transformer.C7_t5355433c         phases=1 windings=3  wdg=1 bus=C7_l2991933.3 kv=7.2 kva=50   wdg=2 bus=C7_x2991933c.1.0 kv=0.12 kva=50   wdg=3 bus=C7_x2991933c.0.2 kv=0.12 kva=50   %imag=0.5 %rs=[0.6 1.2 1.2] %noloadloss=.2 xhl=2.04  xht=2.04  xlt=1.36 
new transformer.C7_t21398402a        phases=1 windings=3  wdg=1 bus=C7_l2729428.1 kv=7.2 kva=15   wdg=2 bus=C7_x2729428a.1.0 kv=0.12 kva=15   wdg=3 bus=C7_x2729428a.0.2 kv=0.12 kva=15   %imag=0.5 %rs=[0.6 1.2 1.2] %noloadloss=.2 xhl=2.04  xht=2.04  xlt=1.36 
new transformer.C7_t21398563a        phases=1 windings=3  wdg=1 bus=C7_l3254216.1 kv=7.2 kva=25   wdg=2 bus=C7_x3254216a.1.0 kv=0.12 kva=25   wdg=3 bus=C7_x3254216a.0.2 kv=0.12 kva=25   %imag=0.5 %rs=[0.6 1.2 1.2] %noloadloss=.2 xhl=2.04  xht=2.04  xlt=1.36 
new transformer.C7_t21386771b        phases=1 windings=3  wdg=1 bus=C7_l2897807.2 kv=7.2 kva=15   wdg=2 bus=C7_x2897807b.1.0 kv=0.12 kva=15   wdg=3 bus=C7_x2897807b.0.2 kv=0.12 kva=15   %imag=0.5 %rs=[0.6 1.2 1.2] %noloadloss=.2 xhl=2.04  xht=2.04  xlt=1.36 
new transformer.C7_t5260648a         phases=1 windings=3  wdg=1 bus=C7_l2898522.1 kv=7.2 kva=25   wdg=2 bus=C7_x2898522a.1.0 kv=0.12 kva=25   wdg=3 bus=C7_x2898522a.0.2 kv=0.12 kva=25   %imag=0.5 %rs=[0.6 1.2 1.2] %noloadloss=.2 xhl=2.04  xht=2.04  xlt=1.36 
new transformer.C7_t5293490c         phases=1 windings=3  wdg=1 bus=C7_l3048230.3 kv=7.2 kva=25   wdg=2 bus=C7_x3048230c.1.0 kv=0.12 kva=25   wdg=3 bus=C7_x3048230c.0.2 kv=0.12 kva=25   %imag=0.5 %rs=[0.6 1.2 1.2] %noloadloss=.2 xhl=2.04  xht=2.04  xlt=1.36 
new transformer.C7_t225901711a       phases=1 windings=3  wdg=1 bus=C7_l3195327.1 kv=7.2 kva=15   wdg=2 bus=C7_x3195327a.1.0 kv=0.12 kva=15   wdg=3 bus=C7_x3195327a.0.2 kv=0.12 kva=15   %imag=0.5 %rs=[0.6 1.2 1.2] %noloadloss=.2 xhl=2.04  xht=2.04  xlt=1.36 
new transformer.C7_t227902981a       phases=1 windings=3  wdg=1 bus=C7_l3047058.1 kv=7.2 kva=37.5 wdg=2 bus=C7_x3047058a.1.0 kv=0.12 kva=37.5 wdg=3 bus=C7_x3047058a.0.2 kv=0.12 kva=37.5 %imag=0.5 %rs=[0.6 1.2 1.2] %noloadloss=.2 xhl=2.04  xht=2.04  xlt=1.36 
new transformer.C7_t5321853b         phases=1 windings=3  wdg=1 bus=C7_l2673313.2 kv=7.2 kva=25   wdg=2 bus=C7_x2673313b.1.0 kv=0.12 kva=25   wdg=3 bus=C7_x2673313b.0.2 kv=0.12 kva=25   %imag=0.5 %rs=[0.6 1.2 1.2] %noloadloss=.2 xhl=2.04  xht=2.04  xlt=1.36 
new transformer.C7_t2224237653a      phases=1 windings=3  wdg=1 bus=C7_l3649302.1 kv=7.2 kva=37.5 wdg=2 bus=C7_x3649302a.1.0 kv=0.12 kva=37.5 wdg=3 bus=C7_x3649302a.0.2 kv=0.12 kva=37.5 %imag=0.5 %rs=[0.6 1.2 1.2] %noloadloss=.2 xhl=2.04  xht=2.04  xlt=1.36 
new transformer.C7_t2224386592a      phases=1 windings=3  wdg=1 bus=C7_l3729297.1 kv=7.2 kva=25   wdg=2 bus=C7_x3729297a.1.0 kv=0.12 kva=25   wdg=3 bus=C7_x3729297a.0.2 kv=0.12 kva=25   %imag=0.5 %rs=[0.6 1.2 1.2] %noloadloss=.2 xhl=2.04  xht=2.04  xlt=1.36 
new transformer.C7_t5391990a         phases=1 windings=3  wdg=1 bus=C7_l2858163.1 kv=7.2 kva=15   wdg=2 bus=C7_x2858163a.1.0 kv=0.12 kva=15   wdg=3 bus=C7_x2858163a.0.2 kv=0.12 kva=15   %imag=0.5 %rs=[0.6 1.2 1.2] %noloadloss=.2 xhl=2.04  xht=2.04  xlt=1.36 
new transformer.C7_t226881057b       phases=1 windings=3  wdg=1 bus=C7_l3214112.2 kv=7.2 kva=15   wdg=2 bus=C7_x3214112b.1.0 kv=0.12 kva=15   wdg=3 bus=C7_x3214112b.0.2 kv=0.12 kva=15   %imag=0.5 %rs=[0.6 1.2 1.2] %noloadloss=.2 xhl=2.04  xht=2.04  xlt=1.36 
new transformer.C7_t225533531a       phases=1 windings=3  wdg=1 bus=C7_l2685805.1 kv=7.2 kva=25   wdg=2 bus=C7_x2685805a.1.0 kv=0.12 kva=25   wdg=3 bus=C7_x2685805a.0.2 kv=0.12 kva=25   %imag=0.5 %rs=[0.6 1.2 1.2] %noloadloss=.2 xhl=2.04  xht=2.04  xlt=1.36 
new transformer.C7_t5247056a         phases=1 windings=3  wdg=1 bus=C7_l2991912.1 kv=7.2 kva=15   wdg=2 bus=C7_x2991912a.1.0 kv=0.12 kva=15   wdg=3 bus=C7_x2991912a.0.2 kv=0.12 kva=15   %imag=0.5 %rs=[0.6 1.2 1.2] %noloadloss=.2 xhl=2.04  xht=2.04  xlt=1.36 
new transformer.C7_t227905262a       phases=1 windings=3  wdg=1 bus=C7_l3140238.1 kv=7.2 kva=25   wdg=2 bus=C7_x3140238a.1.0 kv=0.12 kva=25   wdg=3 bus=C7_x3140238a.0.2 kv=0.12 kva=25   %imag=0.5 %rs=[0.6 1.2 1.2] %noloadloss=.2 xhl=2.04  xht=2.04  xlt=1.36 
new transformer.C7_t21469960b        phases=1 windings=3  wdg=1 bus=C7_l3066830.2 kv=7.2 kva=25   wdg=2 bus=C7_x3066830b.1.0 kv=0.12 kva=25   wdg=3 bus=C7_x3066830b.0.2 kv=0.12 kva=25   %imag=0.5 %rs=[0.6 1.2 1.2] %noloadloss=.2 xhl=2.04  xht=2.04  xlt=1.36 
new transformer.C7_t5260511c         phases=1 windings=3  wdg=1 bus=C7_l3160878.3 kv=7.2 kva=15   wdg=2 bus=C7_x3160878c.1.0 kv=0.12 kva=15   wdg=3 bus=C7_x3160878c.0.2 kv=0.12 kva=15   %imag=0.5 %rs=[0.6 1.2 1.2] %noloadloss=.2 xhl=2.04  xht=2.04  xlt=1.36 
new transformer.C7_t5138346c         phases=1 windings=3  wdg=1 bus=C7_l2916609.3 kv=7.2 kva=15   wdg=2 bus=C7_x2916609c.1.0 kv=0.12 kva=15   wdg=3 bus=C7_x2916609c.0.2 kv=0.12 kva=15   %imag=0.5 %rs=[0.6 1.2 1.2] %noloadloss=.2 xhl=2.04  xht=2.04  xlt=1.36 
new transformer.C7_t225806974a       phases=1 windings=3  wdg=1 bus=C7_l2876814.1 kv=7.2 kva=10   wdg=2 bus=C7_x2876814a.1.0 kv=0.12 kva=10   wdg=3 bus=C7_x2876814a.0.2 kv=0.12 kva=10   %imag=0.5 %rs=[0.6 1.2 1.2] %noloadloss=.2 xhl=2.04  xht=2.04  xlt=1.36 
new transformer.C7_t5355944b         phases=1 windings=3  wdg=1 bus=C7_l3197646.2 kv=7.2 kva=25   wdg=2 bus=C7_x3197646b.1.0 kv=0.12 kva=25   wdg=3 bus=C7_x3197646b.0.2 kv=0.12 kva=25   %imag=0.5 %rs=[0.6 1.2 1.2] %noloadloss=.2 xhl=2.04  xht=2.04  xlt=1.36 
new transformer.C7_t5138569a         phases=1 windings=3  wdg=1 bus=C7_l2973151.1 kv=7.2 kva=15   wdg=2 bus=C7_x2973151a.1.0 kv=0.12 kva=15   wdg=3 bus=C7_x2973151a.0.2 kv=0.12 kva=15   %imag=0.5 %rs=[0.6 1.2 1.2] %noloadloss=.2 xhl=2.04  xht=2.04  xlt=1.36 
new transformer.C7_t5337625c         phases=1 windings=3  wdg=1 bus=C7_l3197627.3 kv=7.2 kva=25   wdg=2 bus=C7_x3197627c.1.0 kv=0.12 kva=25   wdg=3 bus=C7_x3197627c.0.2 kv=0.12 kva=25   %imag=0.5 %rs=[0.6 1.2 1.2] %noloadloss=.2 xhl=2.04  xht=2.04  xlt=1.36 
new transformer.C7_t5321874a         phases=1 windings=3  wdg=1 bus=C7_l2764412.1 kv=7.2 kva=25   wdg=2 bus=C7_x2764412a.1.0 kv=0.12 kva=25   wdg=3 bus=C7_x2764412a.0.2 kv=0.12 kva=25   %imag=0.5 %rs=[0.6 1.2 1.2] %noloadloss=.2 xhl=2.04  xht=2.04  xlt=1.36 
new transformer.C7_t5337713c         phases=1 windings=3  wdg=1 bus=C7_l2766716.3 kv=7.2 kva=15   wdg=2 bus=C7_x2766716c.1.0 kv=0.12 kva=15   wdg=3 bus=C7_x2766716c.0.2 kv=0.12 kva=15   %imag=0.5 %rs=[0.6 1.2 1.2] %noloadloss=.2 xhl=2.04  xht=2.04  xlt=1.36 
new transformer.C7_t5391757b         phases=1 windings=3  wdg=1 bus=C7_l2991917.2 kv=7.2 kva=10   wdg=2 bus=C7_x2991917b.1.0 kv=0.12 kva=10   wdg=3 bus=C7_x2991917b.0.2 kv=0.12 kva=10   %imag=0.5 %rs=[0.6 1.2 1.2] %noloadloss=.2 xhl=2.04  xht=2.04  xlt=1.36 
new transformer.C7_t5338998b         phases=1 windings=3  wdg=1 bus=C7_l3254229.2 kv=7.2 kva=25   wdg=2 bus=C7_x3254229b.1.0 kv=0.12 kva=25   wdg=3 bus=C7_x3254229b.0.2 kv=0.12 kva=25   %imag=0.5 %rs=[0.6 1.2 1.2] %noloadloss=.2 xhl=2.04  xht=2.04  xlt=1.36 
new transformer.C7_t5356064b         phases=1 windings=3  wdg=1 bus=C7_l2935556.2 kv=7.2 kva=25   wdg=2 bus=C7_x2935556b.1.0 kv=0.12 kva=25   wdg=3 bus=C7_x2935556b.0.2 kv=0.12 kva=25   %imag=0.5 %rs=[0.6 1.2 1.2] %noloadloss=.2 xhl=2.04  xht=2.04  xlt=1.36 
new transformer.C7_t5323275b         phases=1 windings=3  wdg=1 bus=C7_l3197660.2 kv=7.2 kva=25   wdg=2 bus=C7_x3197660b.1.0 kv=0.12 kva=25   wdg=3 bus=C7_x3197660b.0.2 kv=0.12 kva=25   %imag=0.5 %rs=[0.6 1.2 1.2] %noloadloss=.2 xhl=2.04  xht=2.04  xlt=1.36 
new transformer.C7_t21389237a        phases=1 windings=3  wdg=1 bus=C7_l2989565.1 kv=7.2 kva=25   wdg=2 bus=C7_x2989565a.1.0 kv=0.12 kva=25   wdg=3 bus=C7_x2989565a.0.2 kv=0.12 kva=25   %imag=0.5 %rs=[0.6 1.2 1.2] %noloadloss=.2 xhl=2.04  xht=2.04  xlt=1.36 
new transformer.C7_t2224230615c      phases=1 windings=3  wdg=1 bus=C7_l3645809.3 kv=7.2 kva=50   wdg=2 bus=C7_x3645809c.1.0 kv=0.12 kva=50   wdg=3 bus=C7_x3645809c.0.2 kv=0.12 kva=50   %imag=0.5 %rs=[0.6 1.2 1.2] %noloadloss=.2 xhl=2.04  xht=2.04  xlt=1.36 
new transformer.C7_t5260463b         phases=1 windings=3  wdg=1 bus=C7_l3086075.2 kv=7.2 kva=15   wdg=2 bus=C7_x3086075b.1.0 kv=0.12 kva=15   wdg=3 bus=C7_x3086075b.0.2 kv=0.12 kva=15   %imag=0.5 %rs=[0.6 1.2 1.2] %noloadloss=.2 xhl=2.04  xht=2.04  xlt=1.36 
new transformer.C7_t5302402a         phases=1 windings=3  wdg=1 bus=C7_l3122824.1 kv=7.2 kva=15   wdg=2 bus=C7_x3122824a.1.0 kv=0.12 kva=15   wdg=3 bus=C7_x3122824a.0.2 kv=0.12 kva=15   %imag=0.5 %rs=[0.6 1.2 1.2] %noloadloss=.2 xhl=2.04  xht=2.04  xlt=1.36 
new transformer.C7_t5355599b         phases=1 windings=3  wdg=1 bus=C7_l3216338.2 kv=7.2 kva=25   wdg=2 bus=C7_x3216338b.1.0 kv=0.12 kva=25   wdg=3 bus=C7_x3216338b.0.2 kv=0.12 kva=25   %imag=0.5 %rs=[0.6 1.2 1.2] %noloadloss=.2 xhl=2.04  xht=2.04  xlt=1.36 
new transformer.C7_t21393412b        phases=1 windings=3  wdg=1 bus=C7_l2729405.2 kv=7.2 kva=25   wdg=2 bus=C7_x2729405b.1.0 kv=0.12 kva=25   wdg=3 bus=C7_x2729405b.0.2 kv=0.12 kva=25   %imag=0.5 %rs=[0.6 1.2 1.2] %noloadloss=.2 xhl=2.04  xht=2.04  xlt=1.36 
new transformer.C7_t5356807a         phases=1 windings=3  wdg=1 bus=C7_l2823545.1 kv=7.2 kva=25   wdg=2 bus=C7_x2823545a.1.0 kv=0.12 kva=25   wdg=3 bus=C7_x2823545a.0.2 kv=0.12 kva=25   %imag=0.5 %rs=[0.6 1.2 1.2] %noloadloss=.2 xhl=2.04  xht=2.04  xlt=1.36 
new transformer.C7_t5293660b         phases=1 windings=3  wdg=1 bus=C7_l2916610.2 kv=7.2 kva=25   wdg=2 bus=C7_x2916610b.1.0 kv=0.12 kva=25   wdg=3 bus=C7_x2916610b.0.2 kv=0.12 kva=25   %imag=0.5 %rs=[0.6 1.2 1.2] %noloadloss=.2 xhl=2.04  xht=2.04  xlt=1.36 
new transformer.C7_t227731863a       phases=1 windings=3  wdg=1 bus=C7_l3177665.1 kv=7.2 kva=37.5 wdg=2 bus=C7_x3177665a.1.0 kv=0.12 kva=37.5 wdg=3 bus=C7_x3177665a.0.2 kv=0.12 kva=37.5 %imag=0.5 %rs=[0.6 1.2 1.2] %noloadloss=.2 xhl=2.04  xht=2.04  xlt=1.36 
new transformer.C7_t227760021a       phases=1 windings=3  wdg=1 bus=C7_l2803199.1 kv=7.2 kva=50   wdg=2 bus=C7_x2803199a.1.0 kv=0.12 kva=50   wdg=3 bus=C7_x2803199a.0.2 kv=0.12 kva=50   %imag=0.5 %rs=[0.6 1.2 1.2] %noloadloss=.2 xhl=2.04  xht=2.04  xlt=1.36 
new transformer.C7_t227760021b       phases=1 windings=3  wdg=1 bus=C7_l2803199.2 kv=7.2 kva=50   wdg=2 bus=C7_x2803199b.1.0 kv=0.12 kva=50   wdg=3 bus=C7_x2803199b.0.2 kv=0.12 kva=50   %imag=0.5 %rs=[0.6 1.2 1.2] %noloadloss=.2 xhl=2.04  xht=2.04  xlt=1.36 
new transformer.C7_t227760021c       phases=1 windings=3  wdg=1 bus=C7_l2803199.3 kv=7.2 kva=50   wdg=2 bus=C7_x2803199c.1.0 kv=0.12 kva=50   wdg=3 bus=C7_x2803199c.0.2 kv=0.12 kva=50   %imag=0.5 %rs=[0.6 1.2 1.2] %noloadloss=.2 xhl=2.04  xht=2.04  xlt=1.36 
new transformer.C7_t5391980a         phases=1 windings=3  wdg=1 bus=C7_l2691952.1 kv=7.2 kva=15   wdg=2 bus=C7_x2691952a.1.0 kv=0.12 kva=15   wdg=3 bus=C7_x2691952a.0.2 kv=0.12 kva=15   %imag=0.5 %rs=[0.6 1.2 1.2] %noloadloss=.2 xhl=2.04  xht=2.04  xlt=1.36 
new transformer.C7_t5338984a         phases=1 windings=3  wdg=1 bus=C7_l2748144.1 kv=7.2 kva=25   wdg=2 bus=C7_x2748144a.1.0 kv=0.12 kva=25   wdg=3 bus=C7_x2748144a.0.2 kv=0.12 kva=25   %imag=0.5 %rs=[0.6 1.2 1.2] %noloadloss=.2 xhl=2.04  xht=2.04  xlt=1.36 
new transformer.C7_t5337702b         phases=1 windings=3  wdg=1 bus=C7_l3029504.2 kv=7.2 kva=25   wdg=2 bus=C7_x3029504b.1.0 kv=0.12 kva=25   wdg=3 bus=C7_x3029504b.0.2 kv=0.12 kva=25   %imag=0.5 %rs=[0.6 1.2 1.2] %noloadloss=.2 xhl=2.04  xht=2.04  xlt=1.36 
new transformer.C7_t5337696b         phases=1 windings=3  wdg=1 bus=C7_l3197635.2 kv=7.2 kva=15   wdg=2 bus=C7_x3197635b.1.0 kv=0.12 kva=15   wdg=3 bus=C7_x3197635b.0.2 kv=0.12 kva=15   %imag=0.5 %rs=[0.6 1.2 1.2] %noloadloss=.2 xhl=2.04  xht=2.04  xlt=1.36 
new transformer.C7_t225577437c       phases=1 windings=3  wdg=1 bus=C7_l2724120.3 kv=7.2 kva=25   wdg=2 bus=C7_x2724120c.1.0 kv=0.12 kva=25   wdg=3 bus=C7_x2724120c.0.2 kv=0.12 kva=25   %imag=0.5 %rs=[0.6 1.2 1.2] %noloadloss=.2 xhl=2.04  xht=2.04  xlt=1.36 
new transformer.C7_t5337676a         phases=1 windings=3  wdg=1 bus=C7_l3235244.1 kv=7.2 kva=25   wdg=2 bus=C7_x3235244a.1.0 kv=0.12 kva=25   wdg=3 bus=C7_x3235244a.0.2 kv=0.12 kva=25   %imag=0.5 %rs=[0.6 1.2 1.2] %noloadloss=.2 xhl=2.04  xht=2.04  xlt=1.36 
new transformer.C7_t5323418a         phases=1 windings=3  wdg=1 bus=C7_l2804254.1 kv=7.2 kva=25   wdg=2 bus=C7_x2804254a.1.0 kv=0.12 kva=25   wdg=3 bus=C7_x2804254a.0.2 kv=0.12 kva=25   %imag=0.5 %rs=[0.6 1.2 1.2] %noloadloss=.2 xhl=2.04  xht=2.04  xlt=1.36 
new transformer.C7_t226192936b       phases=1 windings=3  wdg=1 bus=C7_l2820531.2 kv=7.2 kva=25   wdg=2 bus=C7_x2820531b.1.0 kv=0.12 kva=25   wdg=3 bus=C7_x2820531b.0.2 kv=0.12 kva=25   %imag=0.5 %rs=[0.6 1.2 1.2] %noloadloss=.2 xhl=2.04  xht=2.04  xlt=1.36 
...
