src/Test_Network/C7_Triplex_Lines.DSS
new line.C7_tpx138236b0     bus1=C7_x2673305b.1.2  bus2=C7_sx2673305b.1.2   linecode=4/0triplex  length=50 units=ft 
new line.C7_tpx138237b0     bus1=C7_x3048196b.1.2  bus2=C7_sx3048196b.1.2   linecode=4/0triplex  length=50 units=ft 
new line.C7_tpx138258c0     bus1=C7_x2991911c.1.2  bus2=C7_sx2991911c.1.2   linecode=4/0triplex  length=50 units=ft 
new line.C7_tpx138259c0     bus1=C7_x2973158c.1.2  bus2=C7_sx2973158c.1.2   linecode=4/0triplex  length=50 units=ft 
new line.C7_tpx138260a0     bus1=C7_x3048208a.1.2  bus2=C7_sx3048208a.1.2   linecode=4/0triplex  length=50 units=ft 
new line.C7_tpx138262a0     bus1=C7_x3029502a.1.2  bus2=C7_sx3029502a.1.2   linecode=4/0triplex  length=50 units=ft 
new line.C7_tpx138264b0     bus1=C7_x3104125b.1.2  bus2=C7_sx3104125b.1.2   linecode=4/0triplex  length=50 units=ft 
new line.C7_tpx138265a0     bus1=C7_x3160107a.1.2  bus2=C7_sx3160107a.1.2   linecode=4/0triplex  length=50 units=ft 
new line.C7_tpx138294b0     bus1=C7_x2785516b.1.2  bus2=C7_sx2785516b.1.2   linecode=4/0triplex  length=50 units=ft 
new line.C7_tpx138313a0     bus1=C7_x3141400a.1.2  bus2=C7_sx3141400a.1.2   linecode=4/0triplex  length=50 units=ft 
new line.C7_tpx138342c0     bus1=C7_x2897775c.1.2  bus2=C7_sx2897775c.1.2   linecode=4/0triplex  length=50 units=ft 
new line.C7_tpx138343c0     bus1=C7_x3010565c.1.2  bus2=C7_sx3010565c.1.2   linecode=4/0triplex  length=50 units=ft 
new line.C7_tpx138346c0     bus1=C7_x2916609c.1.2  bus2=C7_sx2916609c.1.2   linecode=4/0triplex  length=50 units=ft 
new line.C7_tpx138371c0     bus1=C7_x2879073c.1.2  bus2=C7_sx2879073c.1.2   linecode=4/0triplex  length=50 units=ft 
new line.C7_tpx138372c0     bus1=C7_x3104126c.1.2  bus2=C7_sx3104126c.1.2   linecode=4/0triplex  length=50 units=ft 
new line.C7_tpx138373c0     bus1=C7_x3029503c.1.2  bus2=C7_sx3029503c.1.2   linecode=4/0triplex  length=50 units=ft 
new line.C7_tpx138374c0     bus1=C7_x2691950c.1.2  bus2=C7_sx2691950c.1.2   linecode=4/0triplex  length=50 units=ft 
new line.C7_tpx138379c0     bus1=C7_x2691951c.1.2  bus2=C7_sx2691951c.1.2   linecode=4/0triplex  length=50 units=ft 
new line.C7_tpx138380c0     bus1=C7_x2879076c.1.2  bus2=C7_sx2879076c.1.2   linecode=4/0triplex  length=50 units=ft 
new line.C7_tpx138404c0     bus1=C7_x2841630c.1.2  bus2=C7_sx2841630c.1.2   linecode=4/0triplex  length=50 units=ft 
new line.C7_tpx138405c0     bus1=C7_x2841629c.1.2  bus2=C7_sx2841629c.1.2   linecode=4/0triplex  length=50 units=ft 
new line.C7_tpx138412c0     bus1=C7_x2785523c.1.2  bus2=C7_sx2785523c.1.2   linecode=4/0triplex  length=50 units=ft 
new line.C7_tpx138413c0     bus1=C7_x3216347c.1.2  bus2=C7_sx3216347c.1.2   linecode=4/0triplex  length=50 units=ft 
new line.C7_tpx138416c0     bus1=C7_x3141388c.1.2  bus2=C7_sx3141388c.1.2   linecode=4/0triplex  length=50 units=ft 
new line.C7_tpx138464c0     bus1=C7_x3066801c.1.2  bus2=C7_sx3066801c.1.2   linecode=4/0triplex  length=50 units=ft 
new line.C7_tpx138465c0     bus1=C7_x2879055c.1.2  bus2=C7_sx2879055c.1.2   linecode=4/0triplex  length=50 units=ft 
new line.C7_tpx138466c0     bus1=C7_x2973144c.1.2  bus2=C7_sx2973144c.1.2   linecode=4/0triplex  length=50 units=ft 
new line.C7_tpx138469c0     bus1=C7_x2785518c.1.2  bus2=C7_sx2785518c.1.2   linecode=4/0triplex  length=50 units=ft 
new line.C7_tpx138470c0     bus1=C7_x2766717c.1.2  bus2=C7_sx2766717c.1.2   linecode=4/0triplex  length=50 units=ft 
new line.C7_tpx138472c0     bus1=C7_x2673309c.1.2  bus2=C7_sx2673309c.1.2   linecode=4/0triplex  length=50 units=ft 
new line.C7_tpx138560a0     bus1=C7_x3104113a.1.2  bus2=C7_sx3104113a.1.2   linecode=4/0triplex  length=50 units=ft 
new line.C7_tpx138561a0     bus1=C7_x3104121a.1.2  bus2=C7_sx3104121a.1.2   linecode=4/0triplex  length=50 units=ft 
new line.C7_tpx138562a0     bus1=C7_x2673310a.1.2  bus2=C7_sx2673310a.1.2   linecode=4/0triplex  length=50 units=ft 
new line.C7_tpx138563a0     bus1=C7_x2916627a.1.2  bus2=C7_sx2916627a.1.2   linecode=4/0triplex  length=50 units=ft 
new line.C7_tpx138564a0     bus1=C7_x2804283a.1.2  bus2=C7_sx2804283a.1.2   linecode=4/0triplex  length=50 units=ft 
new line.C7_tpx138565a0     bus1=C7_x3104122a.1.2  bus2=C7_sx3104122a.1.2   linecode=4/0triplex  length=50 units=ft 
new line.C7_tpx138566a0     bus1=C7_x2785519a.1.2  bus2=C7_sx2785519a.1.2   linecode=4/0triplex  length=50 units=ft 
new line.C7_tpx138567a0     bus1=C7_x2748129a.1.2  bus2=C7_sx2748129a.1.2   linecode=4/0triplex  length=50 units=ft 
new line.C7_tpx138569a0     bus1=C7_x2973151a.1.2  bus2=C7_sx2973151a.1.2   linecode=4/0triplex  length=50 units=ft 
new line.C7_tpx138570a0     bus1=C7_x2748146a.1.2  bus2=C7_sx2748146a.1.2   linecode=4/0triplex  length=50 units=ft 
new line.C7_tpx138571a0     bus1=C7_x2991913a.1.2  bus2=C7_sx2991913a.1.2   linecode=4/0triplex  length=50 units=ft 
new line.C7_tpx138573a0     bus1=C7_x3235253a.1.2  bus2=C7_sx3235253a.1.2   linecode=4/0triplex  length=50 units=ft 
new line.C7_tpx138574a0     bus1=C7_x2991907a.1.2  bus2=C7_sx2991907a.1.2   linecode=4/0triplex  length=50 units=ft 
new line.C7_tpx138581a0     bus1=C7_x2879064a.1.2  bus2=C7_sx2879064a.1.2   linecode=4/0triplex  length=50 units=ft 
new line.C7_tpx138585c0     bus1=C7_x3197637c.1.2  bus2=C7_sx3197637c.1.2   linecode=4/0triplex  length=50 units=ft 
new line.C7_tpx138586c0     bus1=C7_x2860487c.1.2  bus2=C7_sx2860487c.1.2   linecode=4/0triplex  length=50 units=ft 
new line.C7_tpx138641c0     bus1=C7_x2841638c.1.2  bus2=C7_sx2841638c.1.2   linecode=4/0triplex  length=50 units=ft 
new line.C7_tpx138642a0     bus1=C7_x3235256a.1.2  bus2=C7_sx3235256a.1.2   linecode=4/0triplex  length=50 units=ft 
new line.C7_tpx138644a0     bus1=C7_x3197630a.1.2  bus2=C7_sx3197630a.1.2   linecode=4/0triplex  length=50 units=ft 
new line.C7_tpx138645b0     bus1=C7_x3104120b.1.2  bus2=C7_sx3104120b.1.2   linecode=4/0triplex  length=50 units=ft 
new line.C7_tpx138646a0     bus1=C7_x2804251a.1.2  bus2=C7_sx2804251a.1.2   linecode=4/0triplex  length=50 units=ft 
new line.C7_tpx138647c0     bus1=C7_x3254210c.1.2  bus2=C7_sx3254210c.1.2   linecode=4/0triplex  length=50 units=ft 
new line.C7_tpx138649a0     bus1=C7_x3048206a.1.2  bus2=C7_sx3048206a.1.2   linecode=4/0triplex  length=50 units=ft 
new line.C7_tpx138650c0     bus1=C7_x2710510c.1.2  bus2=C7_sx2710510c.1.2   linecode=4/0triplex  length=50 units=ft 
new line.C7_tpx138651c0     bus1=C7_x3197628c.1.2  bus2=C7_sx3197628c.1.2   linecode=4/0triplex  length=50 units=ft 
new line.C7_tpx138652c0     bus1=C7_x2766718c.1.2  bus2=C7_sx2766718c.1.2   linecode=4/0triplex  length=50 units=ft 
new line.C7_tpx138655a0     bus1=C7_x3010556a.1.2  bus2=C7_sx3010556a.1.2   linecode=4/0triplex  length=50 units=ft 
new line.C7_tpx138679a0     bus1=C7_x2710520a.1.2  bus2=C7_sx2710520a.1.2   linecode=4/0triplex  length=50 units=ft 
new line.C7_tpx138680a0     bus1=C7_x2710521a.1.2  bus2=C7_sx2710521a.1.2   linecode=4/0triplex  length=50 units=ft 
new line.C7_tpx138684a0     bus1=C7_x3085396a.1.2  bus2=C7_sx3085396a.1.2   linecode=4/0triplex  length=50 units=ft 
new line.C7_tpx138685a0     bus1=C7_x3122813a.1.2  bus2=C7_sx3122813a.1.2   linecode=4/0triplex  length=50 units=ft 
new line.C7_tpx138716c0     bus1=C7_x3254219c.1.2  bus2=C7_sx3254219c.1.2   linecode=4/0triplex  length=50 units=ft 
new line.C7_tpx138717c0     bus1=C7_x3254220c.1.2  bus2=C7_sx3254220c.1.2   linecode=4/0triplex  length=50 units=ft 
new line.C7_tpx138718c0     bus1=C7_x3104134c.1.2  bus2=C7_sx3104134c.1.2   linecode=4/0triplex  length=50 units=ft 
new line.C7_tpx138719a0     bus1=C7_x2860490a.1.2  bus2=C7_sx2860490a.1.2   linecode=4/0triplex  length=50 units=ft 
new line.C7_tpx138720a0     bus1=C7_x3254218a.1.2  bus2=C7_sx3254218a.1.2   linecode=4/0triplex  length=50 units=ft 
new line.C7_tpx138751b0     bus1=C7_x3066818b.1.2  bus2=C7_sx3066818b.1.2   linecode=4/0triplex  length=50 units=ft 
new line.C7_tpx138752b0     bus1=C7_x2785528b.1.2  bus2=C7_sx2785528b.1.2   linecode=4/0triplex  length=50 units=ft 
new line.C7_tpx138753b0     bus1=C7_x2748130b.1.2  bus2=C7_sx2748130b.1.2   linecode=4/0triplex  length=50 units=ft 
new line.C7_tpx138754b0     bus1=C7_x3254212b.1.2  bus2=C7_sx3254212b.1.2   linecode=4/0triplex  length=50 units=ft 
new line.C7_tpx138755b0     bus1=C7_x2785520b.1.2  bus2=C7_sx2785520b.1.2   linecode=4/0triplex  length=50 units=ft 
new line.C7_tpx138769a0     bus1=C7_x2729411a.1.2  bus2=C7_sx2729411a.1.2   linecode=4/0triplex  length=50 units=ft 
new line.C7_tpx138770a0     bus1=C7_x2897781a.1.2  bus2=C7_sx2897781a.1.2   linecode=4/0triplex  length=50 units=ft 
new line.C7_tpx138771a0     bus1=C7_x3197644a.1.2  bus2=C7_sx3197644a.1.2   linecode=4/0triplex  length=50 units=ft 
new line.C7_tpx138776c0     bus1=C7_x3010566c.1.2  bus2=C7_sx3010566c.1.2   linecode=4/0triplex  length=50 units=ft 
new line.C7_tpx138796b0     bus1=C7_x3236011b.1.2  bus2=C7_sx3236011b.1.2   linecode=4/0triplex  length=50 units=ft 
new line.C7_tpx138797b0     bus1=C7_x3198358b.1.2  bus2=C7_sx3198358b.1.2   linecode=4/0triplex  length=50 units=ft 
new line.C7_tpx138798b0     bus1=C7_x3104859b.1.2  bus2=C7_sx3104859b.1.2   linecode=4/0triplex  length=50 units=ft 
new line.C7_tpx157715b0     bus1=C7_x2936275b.1.2  bus2=C7_sx2936275b.1.2   linecode=4/0triplex  length=50 units=ft 
new line.C7_tpx157716b0     bus1=C7_x3179674b.1.2  bus2=C7_sx3179674b.1.2   linecode=4/0triplex  length=50 units=ft 
new line.C7_tpx157717b0     bus1=C7_x2748840b.1.2  bus2=C7_sx2748840b.1.2   linecode=4/0triplex  length=50 units=ft 
new line.C7_tpx157718b0     bus1=C7_x3142099b.1.2  bus2=C7_sx3142099b.1.2   linecode=4/0triplex  length=50 units=ft 
new line.C7_tpx207286c0     bus1=C7_x3011298c.1.2  bus2=C7_sx3011298c.1.2   linecode=4/0triplex  length=50 units=ft 
new line.C7_tpx207287b0     bus1=C7_x2711234b.1.2  bus2=C7_sx2711234b.1.2   linecode=4/0triplex  length=50 units=ft 
new line.C7_tpx207288b0     bus1=C7_x3198355b.1.2  bus2=C7_sx3198355b.1.2   linecode=4/0triplex  length=50 units=ft 
new line.C7_tpx207290a0     bus1=C7_x2879773a.1.2  bus2=C7_sx2879773a.1.2   linecode=4/0triplex  length=50 units=ft 
new line.C7_tpx207291c0     bus1=C7_x2786274c.1.2  bus2=C7_sx2786274c.1.2   linecode=4/0triplex  length=50 units=ft 
new line.C7_tpx207292c0     bus1=C7_x3179682c.1.2  bus2=C7_sx3179682c.1.2   linecode=4/0triplex  length=50 units=ft 
new line.C7_tpx218472a0     bus1=C7_x2936270a.1.2  bus2=C7_sx2936270a.1.2   linecode=4/0triplex  length=50 units=ft 
new line.C7_tpx218473a0     bus1=C7_x3086078a.1.2  bus2=C7_sx3086078a.1.2   linecode=4/0triplex  length=50 units=ft 
new line.C7_tpx218474a0     bus1=C7_x3217056a.1.2  bus2=C7_sx3217056a.1.2   linecode=4/0triplex  length=50 units=ft 
new line.C7_tpx218475a0     bus1=C7_x3217057a.1.2  bus2=C7_sx3217057a.1.2   linecode=4/0triplex  length=50 units=ft 
new line.C7_tpx223655c0     bus1=C7_x2936268c.1.2  bus2=C7_sx2936268c.1.2   linecode=4/0triplex  length=50 units=ft 
new line.C7_tpx223658a0     bus1=C7_x2823592a.1.2  bus2=C7_sx2823592a.1.2   linecode=4/0triplex  length=50 units=ft 
new line.C7_tpx223660c0     bus1=C7_x3160863c.1.2  bus2=C7_sx3160863c.1.2   linecode=4/0triplex  length=50 units=ft 
new line.C7_tpx223661c0     bus1=C7_x2730108c.1.2  bus2=C7_sx2730108c.1.2   linecode=4/0triplex  length=50 units=ft 
new line.C7_tpx223662c0     bus1=C7_x2786204c.1.2  bus2=C7_sx2786204c.1.2   linecode=4/0triplex  length=50 units=ft 
new line.C7_tpx223663c0     bus1=C7_x2936216c.1.2  bus2=C7_sx2936216c.1.2   linecode=4/0triplex  length=50 units=ft 
new line.C7_tpx247036c0     bus1=C7_x3029498c.1.2  bus2=C7_sx3029498c.1.2   linecode=4/0triplex  length=50 units=ft 
new line.C7_tpx247056a0     bus1=C7_x2991912a.1.2  bus2=C7_sx2991912a.1.2   linecode=4/0triplex  length=50 units=ft 
new line.C7_tpx247057a0     bus1=C7_x3104128a.1.2  bus2=C7_sx3104128a.1.2   linecode=4/0triplex  length=50 units=ft 
new line.C7_tpx247058a0     bus1=C7_x2673315a.1.2  bus2=C7_sx2673315a.1.2   linecode=4/0triplex  length=50 units=ft 
new line.C7_tpx247059a0     bus1=C7_x2766721a.1.2  bus2=C7_sx2766721a.1.2   linecode=4/0triplex  length=50 units=ft 
new line.C7_tpx247060a0     bus1=C7_x2991906a.1.2  bus2=C7_sx2991906a.1.2   linecode=4/0triplex  length=50 units=ft 
new line.C7_tpx247061a0     bus1=C7_x2879054a.1.2  bus2=C7_sx2879054a.1.2   linecode=4/0triplex  length=50 units=ft 
new line.C7_tpx247084b0     bus1=C7_x3254211b.1.2  bus2=C7_sx3254211b.1.2   linecode=4/0triplex  length=50 units=ft 
new line.C7_tpx247100b0     bus1=C7_x2729407b.1.2  bus2=C7_sx2729407b.1.2   linecode=4/0triplex  length=50 units=ft 
new line.C7_tpx247105b0     bus1=C7_x2691942b.1.2  bus2=C7_sx2691942b.1.2   linecode=4/0triplex  length=50 units=ft 
new line.C7_tpx247122b0     bus1=C7_x3197629b.1.2  bus2=C7_sx3197629b.1.2   linecode=4/0triplex  length=50 units=ft 
new line.C7_tpx247126b0     bus1=C7_x2879065b.1.2  bus2=C7_sx2879065b.1.2   linecode=4/0triplex  length=50 units=ft 
new line.C7_tpx247160b0     bus1=C7_x0247160b.1.2  bus2=C7_sx0247160b.1.2   linecode=4/0triplex  length=50 units=ft 
new line.C7_tpx247162b0     bus1=C7_x0247162b.1.2  bus2=C7_sx0247162b.1.2   linecode=4/0triplex  length=50 units=ft 
new line.C7_tpx247164b0     bus1=C7_x2766732b.1.2  bus2=C7_sx2766732b.1.2   linecode=4/0triplex  length=50 units=ft 
new line.C7_tpx247170b0     bus1=C7_x2897784b.1.2  bus2=C7_sx2897784b.1.2   linecode=4/0triplex  length=50 units=ft 
new line.C7_tpx247171b0     bus1=C7_x0247171b.1.2  bus2=C7_sx0247171b.1.2   linecode=4/0triplex  length=50 units=ft 
new line.C7_tpx247184c0     bus1=C7_x2936279c.1.2  bus2=C7_sx2936279c.1.2   linecode=4/0triplex  length=50 units=ft 
new line.C7_tpx247185b0     bus1=C7_x3179678b.1.2  bus2=C7_sx3179678b.1.2   linecode=4/0triplex  length=50 units=ft 
new line.C7_tpx251828b0     bus1=C7_x3179650b.1.2  bus2=C7_sx3179650b.1.2   linecode=4/0triplex  length=50 units=ft 
new line.C7_tpx251855c0     bus1=C7_x2730107c.1.2  bus2=C7_sx2730107c.1.2   linecode=4/0triplex  length=50 units=ft 
new line.C7_tpx251856c0     bus1=C7_x3048888c.1.2  bus2=C7_sx3048888c.1.2   linecode=4/0triplex  length=50 units=ft 
new line.C7_tpx251857c0     bus1=C7_x3064514c.1.2  bus2=C7_sx3064514c.1.2   linecode=4/0triplex  length=50 units=ft 
new line.C7_tpx251858c0     bus1=C7_x2861158c.1.2  bus2=C7_sx2861158c.1.2   linecode=4/0triplex  length=50 units=ft 
new line.C7_tpx251859c0     bus1=C7_x2952007c.1.2  bus2=C7_sx2952007c.1.2   linecode=4/0triplex  length=50 units=ft 
new line.C7_tpx251862c0     bus1=C7_x3254873c.1.2  bus2=C7_sx3254873c.1.2   linecode=4/0triplex  length=50 units=ft 
new line.C7_tpx251863c0     bus1=C7_x2745811c.1.2  bus2=C7_sx2745811c.1.2   linecode=4/0triplex  length=50 units=ft 
new line.C7_tpx251865c0     bus1=C7_x3142050c.1.2  bus2=C7_sx3142050c.1.2   linecode=4/0triplex  length=50 units=ft 
new line.C7_tpx251867c0     bus1=C7_x2861157c.1.2  bus2=C7_sx2861157c.1.2   linecode=4/0triplex  length=50 units=ft 
new line.C7_tpx260457b0     bus1=C7_x3086079b.1.2  bus2=C7_sx3086079b.1.2   linecode=4/0triplex  length=50 units=ft 
new line.C7_tpx260458b0     bus1=C7_x2936276b.1.2  bus2=C7_sx2936276b.1.2   linecode=4/0triplex  length=50 units=ft 
new line.C7_tpx260461b0     bus1=C7_x2861223b.1.2  bus2=C7_sx2861223b.1.2   linecode=4/0triplex  length=50 units=ft 
new line.C7_tpx260463b0     bus1=C7_x3086075b.1.2  bus2=C7_sx3086075b.1.2   linecode=4/0triplex  length=50 units=ft 
new line.C7_tpx260464a0     bus1=C7_x2730187a.1.2  bus2=C7_sx2730187a.1.2   linecode=4/0triplex  length=50 units=ft 
new line.C7_tpx260467a0     bus1=C7_x3104856a.1.2  bus2=C7_sx3104856a.1.2   linecode=4/0triplex  length=50 units=ft 
new line.C7_tpx260473a0     bus1=C7_x2861222a.1.2  bus2=C7_sx2861222a.1.2   linecode=4/0triplex  length=50 units=ft 
new line.C7_tpx260474a0     bus1=C7_x2917330a.1.2  bus2=C7_sx2917330a.1.2   linecode=4/0triplex  length=50 units=ft 
new line.C7_tpx260475a0     bus1=C7_x2879794a.1.2  bus2=C7_sx2879794a.1.2   linecode=4/0triplex  length=50 units=ft 
new line.C7_tpx260476a0     bus1=C7_x2936271a.1.2  bus2=C7_sx2936271a.1.2   linecode=4/0triplex  length=50 units=ft 
new line.C7_tpx260479a0     bus1=C7_x2955074a.1.2  bus2=C7_sx2955074a.1.2   linecode=4/0triplex  length=50 units=ft 
new line.C7_tpx260480c0     bus1=C7_x3030199c.1.2  bus2=C7_sx3030199c.1.2   linecode=4/0triplex  length=50 units=ft 
new line.C7_tpx260481c0     bus1=C7_x2730163c.1.2  bus2=C7_sx2730163c.1.2   linecode=4/0triplex  length=50 units=ft 
new line.C7_tpx260484a0     bus1=C7_x2992624a.1.2  bus2=C7_sx2992624a.1.2   linecode=4/0triplex  length=50 units=ft 
new line.C7_tpx260487a0     bus1=C7_x2692654a.1.2  bus2=C7_sx2692654a.1.2   linecode=4/0triplex  length=50 units=ft 
new line.C7_tpx260488a0     bus1=C7_x2842379a.1.2  bus2=C7_sx2842379a.1.2   linecode=4/0triplex  length=50 units=ft 
new line.C7_tpx260491c0     bus1=C7_x2805031c.1.2  bus2=C7_sx2805031c.1.2   linecode=4/0triplex  length=50 units=ft 
new line.C7_tpx260494b0     bus1=C7_x3068944b.1.2  bus2=C7_sx3068944b.1.2   linecode=4/0triplex  length=50 units=ft 
new line.C7_tpx260495b0     bus1=C7_x2767407b.1.2  bus2=C7_sx2767407b.1.2   linecode=4/0triplex  length=50 units=ft 
new line.C7_tpx260496b0     bus1=C7_x2879767b.1.2  bus2=C7_sx2879767b.1.2   linecode=4/0triplex  length=50 units=ft 
new line.C7_tpx260500b0     bus1=C7_x2711224b.1.2  bus2=C7_sx2711224b.1.2   linecode=4/0triplex  length=50 units=ft 
new line.C7_tpx260501b0     bus1=C7_x3142098b.1.2  bus2=C7_sx3142098b.1.2   linecode=4/0triplex  length=50 units=ft 
new line.C7_tpx260502b0     bus1=C7_x2748839b.1.2  bus2=C7_sx2748839b.1.2   linecode=4/0triplex  length=50 units=ft 
new line.C7_tpx260503b0     bus1=C7_x2917310b.1.2  bus2=C7_sx2917310b.1.2   linecode=4/0triplex  length=50 units=ft 
new line.C7_tpx260505c0     bus1=C7_x2861218c.1.2  bus2=C7_sx2861218c.1.2   linecode=4/0triplex  length=50 units=ft 
new line.C7_tpx260508a0     bus1=C7_x2955081a.1.2  bus2=C7_sx2955081a.1.2   linecode=4/0triplex  length=50 units=ft 
new line.C7_tpx260511c0     bus1=C7_x3160878c.1.2  bus2=C7_sx3160878c.1.2   linecode=4/0triplex  length=50 units=ft 
new line.C7_tpx260513c0     bus1=C7_x2917336c.1.2  bus2=C7_sx2917336c.1.2   linecode=4/0triplex  length=50 units=ft 
new line.C7_tpx260514c0     bus1=C7_x2674047c.1.2  bus2=C7_sx2674047c.1.2   linecode=4/0triplex  length=50 units=ft 
new line.C7_tpx260515a0     bus1=C7_x3160865a.1.2  bus2=C7_sx3160865a.1.2   linecode=4/0triplex  length=50 units=ft 
new line.C7_tpx260517c0     bus1=C7_x2767408c.1.2  bus2=C7_sx2767408c.1.2   linecode=4/0triplex  length=50 units=ft 
new line.C7_tpx260518c0     bus1=C7_x3104853c.1.2  bus2=C7_sx3104853c.1.2   linecode=4/0triplex  length=50 units=ft 
new line.C7_tpx260520b0     bus1=C7_x3254915b.1.2  bus2=C7_sx3254915b.1.2   linecode=4/0triplex  length=50 units=ft 
new line.C7_tpx260521b0     bus1=C7_x3048963b.1.2  bus2=C7_sx3048963b.1.2   linecode=4/0triplex  length=50 units=ft 
new line.C7_tpx260527b0     bus1=C7_x2711226b.1.2  bus2=C7_sx2711226b.1.2   linecode=4/0triplex  length=50 units=ft 
new line.C7_tpx260528c0     bus1=C7_x3217052c.1.2  bus2=C7_sx3217052c.1.2   linecode=4/0triplex  length=50 units=ft 
new line.C7_tpx260529c0     bus1=C7_x3217053c.1.2  bus2=C7_sx3217053c.1.2   linecode=4/0triplex  length=50 units=ft 
new line.C7_tpx260532c0     bus1=C7_x3086074c.1.2  bus2=C7_sx3086074c.1.2   linecode=4/0triplex  length=50 units=ft 
new line.C7_tpx260535c0     bus1=C7_x3067507c.1.2  bus2=C7_sx3067507c.1.2   linecode=4/0triplex  length=50 units=ft 
new line.C7_tpx260542a0     bus1=C7_x2955078a.1.2  bus2=C7_sx2955078a.1.2   linecode=4/0triplex  length=50 units=ft 
new line.C7_tpx260543c0     bus1=C7_x2955077c.1.2  bus2=C7_sx2955077c.1.2   linecode=4/0triplex  length=50 units=ft 
new line.C7_tpx260551c0     bus1=C7_x3160872c.1.2  bus2=C7_sx3160872c.1.2   linecode=4/0triplex  length=50 units=ft 
new line.C7_tpx260552a0     bus1=C7_x3198348a.1.2  bus2=C7_sx3198348a.1.2   linecode=4/0triplex  length=50 units=ft 
new line.C7_tpx260553c0     bus1=C7_x2711225c.1.2  bus2=C7_sx2711225c.1.2   linecode=4/0triplex  length=50 units=ft 
new line.C7_tpx260554c0     bus1=C7_x3030200c.1.2  bus2=C7_sx3030200c.1.2   linecode=4/0triplex  length=50 units=ft 
new line.C7_tpx260555a0     bus1=C7_x3048962a.1.2  bus2=C7_sx3048962a.1.2   linecode=4/0triplex  length=50 units=ft 
new line.C7_tpx260558c0     bus1=C7_x3160861c.1.2  bus2=C7_sx3160861c.1.2   linecode=4/0triplex  length=50 units=ft 
new line.C7_tpx260561c0     bus1=C7_x3104850c.1.2  bus2=C7_sx3104850c.1.2   linecode=4/0triplex  length=50 units=ft 
new line.C7_tpx260562a0     bus1=C7_x3251799a.1.2  bus2=C7_sx3251799a.1.2   linecode=4/0triplex  length=50 units=ft 
new line.C7_tpx260567c0     bus1=C7_x2936211c.1.2  bus2=C7_sx2936211c.1.2   linecode=4/0triplex  length=50 units=ft 
new line.C7_tpx260568c0     bus1=C7_x2842329c.1.2  bus2=C7_sx2842329c.1.2   linecode=4/0triplex  length=50 units=ft 
new line.C7_tpx260569c0     bus1=C7_x3104796c.1.2  bus2=C7_sx3104796c.1.2   linecode=4/0triplex  length=50 units=ft 
new line.C7_tpx260572c0     bus1=C7_x3236004c.1.2  bus2=C7_sx3236004c.1.2   linecode=4/0triplex  length=50 units=ft 
new line.C7_tpx260573c0     bus1=C7_x3160896c.1.2  bus2=C7_sx3160896c.1.2   linecode=4/0triplex  length=50 units=ft 
new line.C7_tpx260574c0     bus1=C7_x3123452c.1.2  bus2=C7_sx3123452c.1.2   linecode=4/0triplex  length=50 units=ft 
new line.C7_tpx260575b0     bus1=C7_x3254869b.1.2  bus2=C7_sx3254869b.1.2   linecode=4/0triplex  length=50 units=ft 
new line.C7_tpx260576c0     bus1=C7_x3030126c.1.2  bus2=C7_sx3030126c.1.2   linecode=4/0triplex  length=50 units=ft 
new line.C7_tpx260577c0     bus1=C7_x2767341c.1.2  bus2=C7_sx2767341c.1.2   linecode=4/0triplex  length=50 units=ft 
new line.C7_tpx260581c0     bus1=C7_x3254870c.1.2  bus2=C7_sx3254870c.1.2   linecode=4/0triplex  length=50 units=ft 
new line.C7_tpx260586b0     bus1=C7_x3048887b.1.2  bus2=C7_sx3048887b.1.2   linecode=4/0triplex  length=50 units=ft 
new line.C7_tpx260589b0     bus1=C7_x2955005b.1.2  bus2=C7_sx2955005b.1.2   linecode=4/0triplex  length=50 units=ft 
new line.C7_tpx260590b0     bus1=C7_x3216988b.1.2  bus2=C7_sx3216988b.1.2   linecode=4/0triplex  length=50 units=ft 
new line.C7_tpx260591b0     bus1=C7_x3179607b.1.2  bus2=C7_sx3179607b.1.2   linecode=4/0triplex  length=50 units=ft 
new line.C7_tpx260594a0     bus1=C7_x2898457a.1.2  bus2=C7_sx2898457a.1.2   linecode=4/0triplex  length=50 units=ft 
new line.C7_tpx260595a0     bus1=C7_x2767340a.1.2  bus2=C7_sx2767340a.1.2   linecode=4/0triplex  length=50 units=ft 
new line.C7_tpx260595b0     bus1=C7_x2767340b.1.2  bus2=C7_sx2767340b.1.2   linecode=4/0triplex  length=50 units=ft 
new line.C7_tpx260595c0     bus1=C7_x2767340c.1.2  bus2=C7_sx2767340c.1.2   linecode=4/0triplex  length=50 units=ft 
new line.C7_tpx260598a0     bus1=C7_x3067478a.1.2  bus2=C7_sx3067478a.1.2   linecode=4/0triplex  length=50 units=ft 
new line.C7_tpx260601c0     bus1=C7_x2730149c.1.2  bus2=C7_sx2730149c.1.2   linecode=4/0triplex  length=50 units=ft 
new line.C7_tpx260602b0     bus1=C7_x2989566b.1.2  bus2=C7_sx2989566b.1.2   linecode=4/0triplex  length=50 units=ft 
new line.C7_tpx260605a0     bus1=C7_x2973791a.1.2  bus2=C7_sx2973791a.1.2   linecode=4/0triplex  length=50 units=ft 
new line.C7_tpx260607b0     bus1=C7_x3029055b.1.2  bus2=C7_sx3029055b.1.2   linecode=4/0triplex  length=50 units=ft 
new line.C7_tpx260620c0     bus1=C7_x3067506c.1.2  bus2=C7_sx3067506c.1.2   linecode=4/0triplex  length=50 units=ft 
...
